CRYSTAL
PRIMVEC
 14.820031   0.000000   0.000000
 -7.410015  12.834505   0.000000
  0.000000   0.000000  20.000041
PRIMCOORD
8 1
16   2.078253   6.360286  12.272259
16   4.015335   6.057695  12.692773
16   4.556700   4.151146  12.358130
16   3.485710   4.058099  15.613054
16   3.977800   5.993961  15.370911
16   5.904202   6.324722  15.816885
11   1.782065   3.684069  13.275129
11   6.264830   3.699861  14.717168
