CRYSTAL
PRIMVEC
 14.820031   0.000000   0.000000
 -7.410015  12.834505   0.000000
  0.000000   0.000000  20.000041
PRIMCOORD
10 1
16   2.367118   6.059872   5.772973
16   1.893433   4.499420   7.518440
16   2.480150   5.365116   9.195359
16   4.495937   4.456809   9.669703
16   5.159792   5.286053  11.389796
16   6.289591   6.975781  11.130199
16   3.552385   7.475159   6.529364
16   5.547229   7.105307   6.310909
11   3.885096  10.229873   9.680006
11   6.905201   3.255145   6.361557
