CRYSTAL
PRIMVEC
 14.820031   0.000000   0.000000
 -7.410015  12.834505   0.000000
  0.000000   0.000000  20.000041
PRIMCOORD
6 1
16   2.416401   7.532832  13.960967
16   3.809101   7.022359  15.426259
16   4.293732   5.005832  15.415044
16   5.704099   4.517974  13.958262
11   1.758952   3.732821  11.968209
11   6.325888   8.303192  11.959182
