CRYSTAL
PRIMVEC
 14.820031   0.000000   0.000000
 -7.410015  12.834505   0.000000
  0.000000   0.000000  20.000041
PRIMCOORD
10 1
16   2.368220   6.058727   5.773051
16   1.893386   4.499035   7.518798
16   2.480928   5.365738   9.193980
16   4.495172   4.457313   9.669702
16   5.160182   5.285614  11.390046
16   6.291008   6.975247  11.130617
16   3.551686   7.476386   6.529375
16   5.545813   7.104920   6.310777
11   3.884686  10.230257   9.680436
11   6.904849   3.255298   6.361525
