CRYSTAL
PRIMVEC
 14.820031   0.000000   0.000000
 -7.410015  12.834505   0.000000
  0.000000   0.000000  20.000041
PRIMCOORD
6 1
16   2.627179   7.396885  13.373614
16   3.746742   7.026348  15.110470
16   4.358743   5.014977  15.111859
16   5.474875   4.640324  13.373687
11   2.791371   4.739006  12.862388
11   5.309263   7.297472  12.855905
