CRYSTAL
PRIMVEC
 14.820031   0.000000   0.000000
 -7.410015  12.834505   0.000000
  0.000000   0.000000  20.000041
PRIMCOORD
8 1
16   2.075079   6.270516  12.238563
16   4.004538   6.006792  12.671390
16   4.587321   4.097511  12.295042
16   3.440784   4.067853  15.719289
16   3.998946   5.989417  15.369973
16   5.923966   6.272087  15.813240
11   2.028278   3.800735  13.356152
11   6.005982   3.824928  14.652659
