CRYSTAL
PRIMVEC
 14.820031   0.000000   0.000000
 -7.410015  12.834505   0.000000
  0.000000   0.000000  20.000041
PRIMCOORD
10 1
16   2.807666   5.898654  10.788898
16   2.145757   4.405781  12.716868
16   2.445812   5.402158  14.393939
16   4.319342   4.507557  15.339975
16   5.262653   5.724470  16.690223
16   6.560186   7.007998  15.928650
16   3.641424   7.515127  11.576741
16   5.647569   7.426514  11.954568
11   3.978499   8.775393  14.960264
11   5.767022   4.044883  12.125901
