CRYSTAL
PRIMVEC
 14.820031   0.000000   0.000000
 -7.410015  12.834505   0.000000
  0.000000   0.000000  20.000041
PRIMCOORD
6 1
16   2.633053   7.411895  13.422234
16   3.777146   7.040430  15.128435
16   4.321073   5.020372  15.153421
16   5.473843   4.612698  13.458225
11   2.727716   4.672894  12.765805
11   5.375342   7.356723  12.759803
