CRYSTAL
PRIMVEC
 14.820031   0.000000   0.000000
 -7.410015  12.834505   0.000000
  0.000000   0.000000  20.000041
PRIMCOORD
10 1
16   2.764636   5.792544  10.849433
16   2.331518   4.378053  12.695098
16   2.390729   5.463167  14.347982
16   4.581105   4.663900  15.172277
16   5.323547   5.547100  16.805581
16   6.321069   7.263309  16.507625
16   3.455920   7.524549  11.552458
16   5.508577   7.514243  11.815255
11   4.702014   7.686936  14.395638
11   5.196817   4.874734  12.334679
