CRYSTAL
PRIMVEC
 14.820031   0.000000   0.000000
 -7.410015  12.834505   0.000000
  0.000000   0.000000  20.000041
PRIMCOORD
10 1
16   2.492061   6.050929  11.322617
16   3.049751   4.345459  12.405557
16   2.278488   4.407510  14.362426
16   3.865982   4.189850  15.716389
16   4.580061   5.955094  16.488404
16   6.328883   6.520408  15.524964
16   3.497279   7.743175  11.916175
16   5.518167   7.651066  11.516351
11   5.255549   8.514740  14.113014
11   5.709710   5.330305  13.110130
