CRYSTAL
PRIMVEC
 14.820031   0.000000   0.000000
 -7.410015  12.834505   0.000000
  0.000000   0.000000  20.000041
PRIMCOORD
6 1
16   2.624947   7.398723  13.369912
16   3.744357   7.024735  15.104905
16   4.360138   5.016151  15.105287
16   5.479770   4.639156  13.370382
11   2.801176   4.753671  12.872338
11   5.297786   7.282575  12.865100
