CRYSTAL
PRIMVEC
 14.820031   0.000000   0.000000
 -7.410015  12.834505   0.000000
  0.000000   0.000000  20.000041
PRIMCOORD
8 1
16   2.094632   6.414202  12.186787
16   4.021387   6.044081  12.654878
16   4.607133   4.136558  12.194528
16   3.420830   4.104941  15.819577
16   3.982569   6.026034  15.386873
16   5.902028   6.415578  15.866552
11   1.794776   3.579952  13.348556
11   6.241539   3.608494  14.658557
