CRYSTAL
PRIMVEC
 14.820031   0.000000   0.000000
 -7.410015  12.834505   0.000000
  0.000000   0.000000  20.000041
PRIMCOORD
8 1
16   2.066797   6.360558  12.275933
16   4.004330   6.058087  12.697603
16   4.539865   4.148326  12.380878
16   3.504443   4.042421  15.589365
16   3.986534   5.981306  15.379778
16   5.914264   6.312392  15.821040
11   1.781294   3.710926  13.252105
11   6.267367   3.715822  14.719605
