CRYSTAL
PRIMVEC
 14.820031   0.000000   0.000000
 -7.410015  12.834505   0.000000
  0.000000   0.000000  20.000041
PRIMCOORD
6 1
16   2.441966   7.551191  13.893873
16   3.833041   7.033682  15.358061
16   4.273264   5.005611  15.358566
16   5.664680   4.487548  13.893603
11   1.937920   3.878213  12.099524
11   6.157302   8.158766  12.084298
