CRYSTAL
PRIMVEC
 14.820031   0.000000   0.000000
 -7.410015  12.834505   0.000000
  0.000000   0.000000  20.000041
PRIMCOORD
8 1
16   2.106050   6.529561  12.144477
16   4.050080   6.013188  12.641536
16   4.597536   4.218751  12.134766
16   3.428545   4.186019  15.879337
16   3.954827   5.994189  15.399475
16   5.888479   6.530924  15.910388
11   1.616125   3.415046  13.335516
11   6.423253   3.442161  14.670813
