CRYSTAL
PRIMVEC
 14.820031   0.000000   0.000000
 -7.410015  12.834505   0.000000
  0.000000   0.000000  20.000041
PRIMCOORD
8 1
16   2.157978   6.532044  12.151730
16   4.048885   6.025702  12.628602
16   4.570128   4.258932  12.117602
16   3.455369   4.225785  15.896271
16   3.954732   6.006818  15.411442
16   5.838420   6.533054  15.903955
11   1.539844   3.357957  13.321890
11   6.499538   3.389546  14.684817
