CRYSTAL
PRIMVEC
 14.820031   0.000000   0.000000
 -7.410015  12.834505   0.000000
  0.000000   0.000000  20.000041
PRIMCOORD
6 1
16   2.411285   7.588547  13.980279
16   3.847933   7.042410  15.390353
16   4.280271   5.011506  15.391647
16   5.693408   4.444182  13.964555
11   2.413006   4.327562  11.989747
11   5.662270   7.700803  11.971343
