CRYSTAL
PRIMVEC
 14.820031   0.000000   0.000000
 -7.410015  12.834505   0.000000
  0.000000   0.000000  20.000041
PRIMCOORD
10 1
16   3.192606   5.462921  11.540608
16   1.794800   5.003593  13.056588
16   2.364909   5.525866  14.959179
16   3.851238   4.105468  15.621576
16   5.384504   5.191221  16.411862
16   6.667621   5.956705  15.000499
16   3.297663   7.465841  11.048236
16   4.978673   8.282144  11.907635
11   4.777570   8.021630  14.721802
11   6.266346   5.693146  12.208041
