CRYSTAL
PRIMVEC
 14.820031   0.000000   0.000000
 -7.410015  12.834505   0.000000
  0.000000   0.000000  20.000041
PRIMCOORD
8 1
16   2.154539   6.534751  12.151862
16   4.030696   6.063654  12.639908
16   4.598308   4.221489  12.101450
16   3.428713   4.188280  15.913207
16   3.972596   6.045231  15.401647
16   5.841409   6.535786  15.902769
11   1.551033   3.353834  13.334822
11   6.487601   3.386813  14.670644
