CRYSTAL
PRIMVEC
 14.820031   0.000000   0.000000
 -7.410015  12.834505   0.000000
  0.000000   0.000000  20.000041
PRIMCOORD
6 1
16   2.621841   7.410173  13.434871
16   3.778351   7.034400  15.132608
16   4.322746   5.014760  15.146166
16   5.480260   4.619229  13.450242
11   2.739799   4.668280  12.763471
11   5.365176   7.368170  12.760567
