CRYSTAL
PRIMVEC
 14.820031   0.000000   0.000000
 -7.410015  12.834505   0.000000
  0.000000   0.000000  20.000041
PRIMCOORD
10 1
16   3.178256   5.391465  11.474670
16   1.814594   4.907740  13.033716
16   2.444928   5.414063  14.912268
16   4.002943   4.052454  15.576900
16   5.387164   5.267234  16.436029
16   6.610542   6.211727  15.081152
16   3.317175   7.405573  11.036663
16   5.012468   8.192776  11.890944
11   4.638965   8.236406  14.680433
11   6.168895   5.629098  12.353252
