CRYSTAL
PRIMVEC
 14.820031   0.000000   0.000000
 -7.410015  12.834505   0.000000
  0.000000   0.000000  20.000041
PRIMCOORD
10 1
16   2.834419   5.853131  10.885398
16   2.159230   4.479238  12.680547
16   2.487624   5.450733  14.380843
16   4.309656   4.505679  15.337243
16   5.186560   5.737166  16.687857
16   6.716497   6.878604  15.963405
16   3.615974   7.540772  11.619406
16   5.647154   7.518889  11.824630
11   3.694247   9.026359  15.081080
11   5.924570   3.717965  12.015617
