CRYSTAL
PRIMVEC
 14.820031   0.000000   0.000000
 -7.410015  12.834505   0.000000
  0.000000   0.000000  20.000041
PRIMCOORD
10 1
16   2.783249   5.825890  10.870246
16   2.349899   4.351599  12.612713
16   2.372512   5.317175  14.349508
16   4.366992   4.468987  15.302642
16   5.217135   5.609789  16.721967
16   6.481575   7.027775  16.034371
16   3.464777   7.547719  11.596490
16   5.512989   7.564147  11.862347
11   4.600295   7.995639  14.378352
11   5.426509   4.999815  12.747389
