CRYSTAL
PRIMVEC
 14.820031   0.000000   0.000000
 -7.410015  12.834505   0.000000
  0.000000   0.000000  20.000041
PRIMCOORD
6 1
16   2.629714   7.409406  13.433441
16   3.776496   7.031982  15.137991
16   4.329918   5.011923  15.149297
16   5.476538   4.619985  13.446636
11   2.705717   4.645829  12.763026
11   5.389791   7.395886  12.757533
