CRYSTAL
PRIMVEC
 14.820031   0.000000   0.000000
 -7.410015  12.834505   0.000000
  0.000000   0.000000  20.000041
PRIMCOORD
8 1
16   2.072713   6.378124  12.283260
16   4.008057   6.072687  12.717472
16   4.546786   4.166090  12.386755
16   3.501205   4.016395  15.572277
16   3.975667   5.960379  15.396993
16   5.901418   6.296546  15.848956
11   1.779072   3.716667  13.187696
11   6.279978   3.722951  14.722898
