CRYSTAL
PRIMVEC
 14.820031   0.000000   0.000000
 -7.410015  12.834505   0.000000
  0.000000   0.000000  20.000041
PRIMCOORD
8 1
16   2.076400   6.272028  12.238089
16   4.007175   6.010702  12.668852
16   4.592055   4.101923  12.288851
16   3.436995   4.070881  15.725571
16   3.996105   5.992672  15.372877
16   5.922073   6.274323  15.812249
11   2.017965   3.792427  13.358168
11   6.016126   3.814883  14.651651
