CRYSTAL
PRIMVEC
 14.820031   0.000000   0.000000
 -7.410015  12.834505   0.000000
  0.000000   0.000000  20.000041
PRIMCOORD
6 1
16   2.629599   7.409418  13.433423
16   3.776551   7.031880  15.138167
16   4.329977   5.011944  15.149364
16   5.476514   4.620046  13.446776
11   2.705604   4.645720  12.762844
11   5.389928   7.396004  12.757349
