CRYSTAL
PRIMVEC
 14.820031   0.000000   0.000000
 -7.410015  12.834505   0.000000
  0.000000   0.000000  20.000041
PRIMCOORD
10 1
16   2.834168   5.848733  10.879622
16   2.145817   4.484773  12.685860
16   2.494593   5.456481  14.380732
16   4.316101   4.502312  15.333901
16   5.184123   5.736647  16.683914
16   6.705783   6.897831  15.969580
16   3.617798   7.530819  11.623453
16   5.650335   7.525603  11.832224
11   3.704793   9.015237  15.077092
11   5.922420   3.710099  12.009647
