CRYSTAL
PRIMVEC
 14.820031   0.000000   0.000000
 -7.410015  12.834505   0.000000
  0.000000   0.000000  20.000041
PRIMCOORD
8 1
16   2.077127   6.361913  12.270988
16   4.014463   6.058794  12.692571
16   4.553809   4.149607  12.360889
16   3.490476   4.057853  15.611946
16   3.977953   5.994468  15.372841
16   5.901097   6.332754  15.819806
11   1.790832   3.681127  13.275609
11   6.259137   3.693322  14.711657
