CRYSTAL
PRIMVEC
 14.820031   0.000000   0.000000
 -7.410015  12.834505   0.000000
  0.000000   0.000000  20.000041
PRIMCOORD
6 1
16   2.434095   7.570290  13.934255
16   3.832996   7.034233  15.386147
16   4.284278   5.007300  15.401991
16   5.663046   4.461452  13.916050
11   2.442381   4.349413  12.046113
11   5.651378   7.692323  12.003368
