CRYSTAL
PRIMVEC
 14.820031   0.000000   0.000000
 -7.410015  12.834505   0.000000
  0.000000   0.000000  20.000041
PRIMCOORD
10 1
16   2.690939   5.752803  10.886112
16   2.051818   4.373815  12.717450
16   2.446220   5.412791  14.343727
16   4.463872   4.543898  15.083458
16   5.127244   5.561543  16.696782
16   6.406176   7.096387  16.324188
16   3.377466   7.439886  11.678889
16   5.417324   7.463550  11.951956
11   4.754645   8.355327  14.535087
11   5.840226   4.708536  12.258376
