CRYSTAL
PRIMVEC
 14.820031   0.000000   0.000000
 -7.410015  12.834505   0.000000
  0.000000   0.000000  16.999976
PRIMCOORD
78 1
 6  14.822822  -0.000854   7.514316
 6   8.648126  10.693894   7.494131
 6   1.237729   2.138066   7.454183
 6  12.352336  -0.001592   7.510698
 6   2.472944  -0.000864   7.496942
 6   6.177947  10.694418   7.456927
 6  13.587414   2.138055   7.506077
 6   9.883004   8.554931   7.482494
 6   2.473367   4.277410   7.350563
 6   9.881969  -0.002098   7.496725
 6   4.942366  -0.001302   7.480691
 6   4.943396   8.555212   7.351192
 6  12.352822   4.276499   7.501607
 6  11.117644   6.415430   7.497893
 6   3.708509   6.416111   7.296783
 6   7.412076  -0.001800   7.483204
 6   7.414009   8.555587   7.407625
 6   3.708088   2.137712   7.412412
 6  11.116858   2.137404   7.522745
 6   8.647767   6.416085   7.431540
 6   4.942923   4.276925   7.335508
 6   8.646116   2.137499   7.486849
 6   6.176690   2.137839   7.429407
 6   6.178132   6.416318   7.336059
 6   9.881661   4.276838   7.492163
 6   3.707704  10.693671   7.434440
 6  -3.702054  10.693765   7.517240
 6   0.002667   4.276884   7.431186
 6   7.411513   4.277205   7.413229
 6   1.238145  10.692975   7.458538
 6  -2.466488   8.554043   7.508716
 6   1.238410   6.415800   7.372068
 6  -1.231320   6.415131   7.468465
 6  -1.231784  10.693396   7.500506
 6   2.473294   8.554699   7.368761
 6   0.004238   8.553901   7.453198
 6   7.412730  11.407034   7.495605
 6   1.237910   0.712336   7.496044
 6  13.587206   0.711997   7.518342
 6   8.648439   9.267976   7.461892
 6   2.472709   2.851024   7.399148
 6  11.116885   0.711138   7.515771
 6   3.707576   0.712125   7.466390
 6   6.178218   9.268711   7.399064
 6  12.352357   2.850318   7.513914
 6   9.882467   7.128695   7.472783
 6   3.708140   4.990273   7.309438
 6   8.646694   0.711142   7.491482
 6   6.177124   0.711968   7.465001
 6   4.943191   7.129124   7.311153
 6  11.117167   4.989464   7.503196
 6   4.942509  11.406958   7.469811
 6  -4.937025  11.406887   7.512360
 6   0.002193   2.850751   7.463813
 6   7.413283   7.129071   7.383314
 6   4.942749   2.851017   7.386610
 6   9.881353   2.850465   7.506918
 6   8.646802   4.989980   7.446220
 6   6.177629   4.989951   7.351526
 6   7.411204   2.850789   7.443694
 6   2.472638  11.406209   7.462931
 6  -3.702155   9.267342   7.511987
 6   1.237554   4.989861   7.374976
 6  -1.232130   4.989314   7.467197
 6  -2.467139  11.406776   7.508155
 6   3.707791   9.268427   7.375018
 6   0.002895  11.406217   7.485577
 6  -2.466752   7.127984   7.498726
 6   2.473422   7.128842   7.332297
 6   1.239112   9.267145   7.425324
 6  -1.231165   9.266807   7.495992
 6   0.003992   7.127654   7.431811
16   2.933300   7.317377  10.656191
16   3.282970   6.888929  12.564733
16   4.770235   5.197794  12.584308
16   5.131790   4.735763  10.685149
11   1.381895   3.739902  10.922513
11   6.610089   8.342997  10.967528
