CRYSTAL
PRIMVEC
 14.820031   0.000000   0.000000
 -7.410015  12.834505   0.000000
  0.000000   0.000000  16.999976
PRIMCOORD
78 1
 6  14.819725  -0.003636   7.433816
 6   8.645218  10.692086   7.433269
 6   1.234569   2.134439   7.431656
 6  12.349646  -0.003580   7.434211
 6   2.470111  -0.003969   7.433817
 6   6.174939  10.692837   7.432691
 6  13.584180   2.134887   7.433431
 6   9.880514   8.552475   7.432295
 6   2.470339   4.274274   7.435906
 6   9.879593  -0.003831   7.432885
 6   4.940381  -0.004169   7.432245
 6   4.939151   8.553535   7.433893
 6  12.349180   4.274129   7.433243
 6  11.115144   6.413101   7.433889
 6   3.704073   6.413659   7.435120
 6   7.409779  -0.003957   7.432245
 6   7.410629   8.552877   7.428934
 6   3.705849   2.134372   7.433307
 6  11.114559   2.135045   7.432523
 6   8.645837   6.412576   7.432598
 6   4.941106   4.273592   7.435640
 6   8.644685   2.134960   7.432884
 6   6.175317   2.134941   7.433265
 6   6.175408   6.412205   7.434530
 6   9.879893   4.273941   7.433515
 6   3.704227  10.691870   7.434266
 6  -3.704970  10.691561   7.434006
 6  -0.001571   4.274224   7.431032
 6   7.410296   4.273434   7.434306
 6   1.234657  10.691415   7.433553
 6  -2.469982   8.552434   7.434058
 6   1.234286   6.414972   7.434965
 6  -1.235392   6.413800   7.433547
 6  -1.235078  10.691534   7.432824
 6   2.469172   8.553057   7.437188
 6  -0.000223   8.552914   7.433151
 6   7.410140  11.405030   7.433626
 6   1.234903   0.708637   7.433267
 6  13.584592   0.708892   7.434386
 6   8.645799   9.266067   7.431337
 6   2.470316   2.846383   7.433283
 6  11.114539   0.709079   7.432941
 6   3.705275   0.708475   7.433334
 6   6.175292   9.266667   7.430067
 6  12.349353   2.848042   7.433399
 6   9.880301   7.126131   7.432593
 6   3.706389   4.987894   7.435692
 6   8.644758   0.709132   7.432616
 6   6.174920   0.709061   7.431634
 6   4.939358   7.126185   7.435199
 6  11.114442   4.987193   7.434070
 6   4.939514  11.404958   7.433943
 6  -4.939816  11.404615   7.434136
 6  -0.000835   2.847815   7.431207
 6   7.410901   7.126110   7.431067
 6   4.940611   2.847630   7.434341
 6   9.879578   2.847901   7.432601
 6   8.644995   4.986724   7.433864
 6   6.175665   4.985747   7.436239
 6   7.409962   2.847795   7.433897
 6   2.469458  11.404586   7.433581
 6  -3.704894   9.265609   7.433823
 6   1.233519   4.988357   7.433801
 6  -1.236106   4.987671   7.432298
 6  -2.470081  11.404366   7.433344
 6   3.703657   9.266502   7.436694
 6  -0.000337  11.404425   7.432267
 6  -2.470289   7.126586   7.434348
 6   2.469598   7.127116   7.435988
 6   1.234341   9.265867   7.434554
 6  -1.235280   9.265649   7.433047
 6  -0.000856   7.127318   7.433736
16   2.917291   7.345241  11.067582
16   3.289793   6.898470  12.987976
16   4.823119   5.226650  12.982288
16   5.186176   4.785157  11.059043
11   2.343924   4.575479  10.681090
11   5.759656   7.564511  10.700082
