CRYSTAL
PRIMVEC
 14.820031   0.000000   0.000000
 -7.410015  12.834505   0.000000
  0.000000   0.000000  20.000041
PRIMCOORD
80 1
 6  14.825748   0.001464   9.833357
 6   8.650594  10.697432   9.831754
 6   1.241028   2.140233   9.839722
 6  12.355901   0.001262   9.834728
 6   2.475854   0.001595   9.838734
 6   6.180673  10.697268   9.833632
 6  13.591099   2.140108   9.833827
 6   9.885545   8.558469   9.829893
 6   2.476176   4.278897   9.848855
 6   9.886001   0.001419   9.837743
 6   4.945485   0.001623   9.840593
 6   4.945570   8.558629   9.838152
 6  12.355788   4.279204   9.836576
 6  11.120636   6.418887   9.833181
 6   3.711228   6.418647   9.844507
 6   7.415597   0.001694   9.838996
 6   7.415506   8.558778   9.831110
 6   3.710502   2.140257   9.844677
 6  11.120971   2.140007   9.833419
 6   8.650947   6.419136   9.828908
 6   4.944812   4.278845   9.844563
 6   8.650929   2.140066   9.833544
 6   6.180304   2.140137   9.838824
 6   6.180517   6.419736   9.838851
 6   9.886206   4.279212   9.831171
 6   3.710924  10.697108   9.838917
 6  -3.699412  10.697504   9.835693
 6   0.005622   4.278855   9.841234
 6   7.416177   4.278949   9.833554
 6   1.241009  10.697490   9.839898
 6  -2.464528   8.558342   9.832750
 6   1.240968   6.418593   9.847014
 6  -1.229804   6.418691   9.838253
 6  -1.229419  10.697512   9.837615
 6   2.476352   8.558871   9.844045
 6   0.005581   8.558763   9.836930
 6   7.415632  11.410188   9.832316
 6   1.240819   0.714383   9.836835
 6  13.590866   0.714156   9.832613
 6   8.650526   9.271663   9.829640
 6   2.475855   2.852940   9.846111
 6  11.120983   0.714059   9.835524
 6   3.710697   0.714528   9.841326
 6   6.180476   9.271459   9.834066
 6  12.355928   2.853098   9.834145
 6   9.885906   7.132353   9.830121
 6   3.710610   4.992590   9.846293
 6   8.650920   0.714325   9.836672
 6   6.180448   0.714310   9.839568
 6   4.945153   7.132732   9.839982
 6  11.120939   4.992665   9.834297
 6   4.945625  11.410060   9.836187
 6  -4.934341  11.410271   9.835420
 6   0.005940   2.852861   9.837584
 6   7.415943   7.132730   9.831592
 6   4.945189   2.853087   9.843685
 6   9.886022   2.853058   9.832556
 6   8.651297   4.992771   9.829203
 6   6.180289   4.992431   9.840953
 6   7.415772   2.852687   9.834298
 6   2.476016  11.410018   9.840214
 6  -3.699471   9.271517   9.831806
 6   1.240852   4.991493   9.847524
 6  -1.229404   4.992246   9.839245
 6  -2.464431  11.410390   9.837981
 6   3.710931   9.271539   9.840824
 6   0.005727  11.410165   9.839521
 6  -2.464701   7.132288   9.834150
 6   2.476738   7.132392   9.847235
 6   1.241061   9.271623   9.840187
 6  -1.229565   9.271537   9.835152
 6   0.005005   7.132328   9.839528
16   2.256920   8.003800  15.834428
16   4.115899   7.459081  15.325443
16   4.398043   7.466574  13.342247
16   3.497515   4.448421  13.394911
16   3.811762   4.516610  15.372831
16   5.676859   3.975821  15.865735
11   1.500954   6.589736  13.456656
11   6.394337   5.328703  13.454991
