CRYSTAL
PRIMVEC
 14.820031   0.000000   0.000000
 -7.410015  12.834505   0.000000
  0.000000   0.000000  20.000041
PRIMCOORD
75 1
 6  14.825022   0.002597  12.419395
 6   8.649972  10.698187  12.414210
 6   1.240108   2.141555  12.402668
 6  12.354944   0.002446  12.421691
 6   2.474978   0.002681  12.419309
 6   6.179815  10.698107  12.405092
 6  13.589962   2.141575  12.415201
 6   9.885118   8.559110  12.403221
 6   2.474979   4.280545  12.368594
 6   9.884956   0.002467  12.421749
 6   4.944909   0.002699  12.419763
 6   4.944849   8.559176  12.372462
 6  12.354882   4.280717  12.404943
 6  11.119974   6.419932  12.399558
 6   3.709929   6.419961  12.354034
 6   7.414846   0.002638  12.419810
 6   7.414855   8.559231  12.382673
 6   3.709948   2.141561  12.398612
 6  11.119949   2.141588  12.420718
 6   8.650071   6.420074  12.380303
 6   4.944918   4.280549  12.369155
 6   8.649873   2.141607  12.414384
 6   6.179775   2.141567  12.402613
 6   6.179831   6.419971  12.355157
 6   9.885046   4.280738  12.403346
 6   3.709933  10.698025  12.402514
 6  -3.700059  10.698032  12.420000
 6   0.005078   4.280598  12.382792
 6   7.414812   4.280605  12.381452
 6   1.240052  10.698129  12.406350
 6  -2.465226   8.559088  12.405275
 6   1.240049   6.419962  12.355207
 6  -1.230168   6.420035  12.384910
 6  -1.230114  10.698183  12.416041
 6   2.475012   8.559161  12.373062
 6   0.004999   8.559225  12.385920
 6   7.414772  11.411127  12.414731
 6   1.239986   0.715660  12.415782
 6  13.589896   0.715477  12.421065
 6   8.649884   9.272116  12.401393
 6   2.475063   2.854671  12.389459
 6  11.119955   0.715560  12.423789
 6   3.709935   0.715784  12.414633
 6   6.179714   9.272219  12.386086
 6  12.354834   2.854686  12.414965
 6   9.885058   7.132903  12.395130
 6   3.709935   4.993694  12.360064
 6   8.649981   0.715488  12.420843
 6   6.179880   0.715696  12.416195
 6   4.944918   7.133006  12.357087
 6  11.119999   4.993747  12.403300
 6   4.944834  11.411035  12.411274
 6  -4.935076  11.411256  12.421232
 6   0.005067   2.854591  12.400655
 6   7.414841   7.133120  12.366605
 6   4.944824   2.854652  12.389631
 6   9.885052   2.854669  12.414156
 6   8.650002   4.993677  12.386990
 6   6.179760   4.993711  12.363739
 6   7.414768   2.854613  12.399857
 6   2.475026  11.411044  12.411704
 6  -3.700037   9.272087  12.412000
 6   1.240124   4.993678  12.363194
 6  -1.230102   4.993679  12.390000
 6  -2.465056  11.411260  12.421948
 6   3.709910   9.272171  12.382073
 6   0.005084  11.411137  12.416127
 6  -2.465115   7.132904  12.397753
 6   2.474914   7.133012  12.356894
 6   1.240139   9.272202  12.387685
 6  -1.230019   9.272086  12.404297
 6   0.005031   7.133053  12.370361
16   3.884315   6.261588  17.858798
11   0.703532   6.133548  15.771670
11   7.061556   6.196346  15.766564
