CRYSTAL
PRIMVEC
 14.820031   0.000000   0.000000
 -7.410015  12.834505   0.000000
  0.000000   0.000000  16.999976
PRIMCOORD
78 1
 6  14.818534  -0.003000   7.475306
 6   8.644479  10.692983   7.472505
 6   1.232976   2.134409   7.468823
 6  12.348349  -0.002638   7.467786
 6   2.469226  -0.003348   7.468570
 6   6.173817  10.694716   7.469299
 6  13.582861   2.135710   7.470983
 6   9.880082   8.553185   7.466167
 6   2.468754   4.274417   7.435800
 6   9.878434  -0.002772   7.458814
 6   4.939776  -0.003646   7.455427
 6   4.937586   8.555934   7.436050
 6  12.348021   4.275003   7.465639
 6  11.114303   6.413924   7.463430
 6   3.702033   6.414841   7.404111
 6   7.409055  -0.003240   7.452302
 6   7.410681   8.553995   7.459683
 6   3.705607   2.134212   7.446370
 6  11.113369   2.135846   7.463619
 6   8.646186   6.412804   7.453649
 6   4.941427   4.273063   7.411750
 6   8.644172   2.135466   7.450824
 6   6.174936   2.135239   7.436617
 6   6.175715   6.411997   7.421897
 6   9.879137   4.274512   7.457107
 6   3.702715  10.693609   7.452392
 6  -3.705580  10.692325   7.465443
 6  -0.003645   4.274913   7.461725
 6   7.410285   4.273428   7.433816
 6   1.233498  10.692751   7.448443
 6  -2.470683   8.553353   7.461229
 6   1.232186   6.416789   7.432904
 6  -1.236824   6.414938   7.458072
 6  -1.235907  10.692454   7.457110
 6   2.467321   8.554815   7.428887
 6  -0.001761   8.554190   7.445790
 6   7.409314  11.406079   7.474813
 6   1.233880   0.708710   7.473159
 6  13.583417   0.709675   7.471998
 6   8.645803   9.267116   7.468796
 6   2.469253   2.845489   7.453930
 6  11.113250   0.710080   7.463908
 6   3.704654   0.708541   7.457710
 6   6.174817   9.268539   7.457300
 6  12.348165   2.849012   7.466800
 6   9.879990   7.127009   7.462261
 6   3.706250   4.988170   7.407494
 6   8.643773   0.709833   7.454461
 6   6.174313   0.709380   7.447999
 6   4.938599   7.127178   7.414457
 6  11.113466   4.988044   7.462980
 6   4.938341  11.406306   7.464138
 6  -4.940509  11.405293   7.469434
 6  -0.002380   2.848272   7.468884
 6   7.411281   7.126596   7.445762
 6   4.940535   2.847626   7.428236
 6   9.878752   2.848639   7.456876
 6   8.644870   4.987091   7.447940
 6   6.175820   4.985206   7.417974
 6   7.409578   2.848009   7.438400
 6   2.467883  11.405995   7.452773
 6  -3.705512   9.266465   7.465369
 6   1.231121   4.989732   7.444601
 6  -1.237938   4.988755   7.462744
 6  -2.470637  11.405166   7.460488
 6   3.701391   9.268423   7.438293
 6  -0.001453  11.405451   7.453503
 6  -2.471231   7.127662   7.462083
 6   2.467349   7.129109   7.416329
 6   1.232954   9.267132   7.439966
 6  -1.236395   9.266701   7.455146
 6  -0.002789   7.128934   7.446063
16   2.703780   7.425910  11.003322
16   3.712821   7.053598  12.754190
16   4.420093   5.053555  12.750553
16   5.425562   4.688052  10.996574
11   2.746040   4.744319  10.317798
11   5.379495   7.371698  10.315136
