CRYSTAL
PRIMVEC
 14.820031   0.000000   0.000000
 -7.410015  12.834505   0.000000
  0.000000   0.000000  20.000041
PRIMCOORD
75 1
 6  14.824545   0.002404  12.436989
 6   8.650049  10.699095  12.437248
 6   1.239307   2.139818  12.430537
 6  12.354579   0.002484  12.434721
 6   2.474715   0.002027  12.434969
 6   6.179760  10.699575  12.427017
 6  13.588737   2.140023  12.440360
 6   9.885263   8.559622  12.445911
 6   2.475691   4.277254  12.409458
 6   9.884814   0.002462  12.434556
 6   4.944643   0.002085  12.434591
 6   4.944197   8.561847  12.404210
 6  12.353617   4.279276  12.449738
 6  11.119736   6.419252  12.453163
 6   3.709961   6.419152  12.387096
 6   7.414640   0.002474  12.435707
 6   7.415706   8.561919  12.430871
 6   3.709525   2.139302  12.420102
 6  11.119755   2.140563  12.442547
 6   8.652378   6.419372  12.445881
 6   4.943560   4.277043  12.406142
 6   8.650554   2.139901  12.438797
 6   6.179657   2.139871  12.427702
 6   6.179816   6.420431  12.411687
 6   9.885814   4.279100  12.448820
 6   3.709592  10.699844  12.418751
 6  -3.700307  10.698443  12.440943
 6   0.001970   4.277953  12.437659
 6   7.416742   4.277725  12.433657
 6   1.239340  10.699576  12.426948
 6  -2.465881   8.559453  12.445932
 6   1.238419   6.420663  12.418054
 6  -1.232799   6.419596  12.447023
 6  -1.230779  10.699010  12.437265
 6   2.474927   8.562330  12.405654
 6   0.003458   8.561561  12.431771
 6   7.415156  11.411528  12.434400
 6   1.239629   0.714410  12.434939
 6  13.589448   0.714746  12.437321
 6   8.650872   9.273713  12.439236
 6   2.474734   2.851498  12.420050
 6  11.119690   0.714894  12.437165
 6   3.709677   0.714136  12.430095
 6   6.179713   9.274297  12.420048
 6  12.354179   2.853380  12.444398
 6   9.886149   7.133630  12.451038
 6   3.710005   4.991882  12.395248
 6   8.649794   0.714622  12.436493
 6   6.179474   0.714591  12.433268
 6   4.942947   7.135597  12.394125
 6  11.119755   4.993227  12.452926
 6   4.944740  11.411890  12.426241
 6  -4.934941  11.411220  12.438623
 6   0.003578   2.852090  12.436142
 6   7.417783   7.135145  12.431543
 6   4.944366   2.851653  12.417397
 6   9.885305   2.853364  12.443923
 6   8.651631   4.992584  12.444964
 6   6.179887   4.989952  12.416640
 6   7.415568   2.851755  12.433786
 6   2.474463  11.411884  12.426209
 6  -3.700294   9.272430  12.445817
 6   1.238704   4.990264  12.422769
 6  -1.232357   4.992998  12.446579
 6  -2.465683  11.411159  12.438379
 6   3.709653   9.274685  12.407317
 6   0.004101  11.411608  12.433493
 6  -2.466626   7.133518  12.450822
 6   2.476172   7.135579  12.397276
 6   1.239330   9.274217  12.420764
 6  -1.231533   9.273661  12.439138
 6   0.001166   7.135314  12.434556
16   3.889928   6.225621  16.596017
11   1.774334   6.167746  15.186119
11   6.008862   6.216273  15.194169
