CRYSTAL
PRIMVEC
 14.820031   0.000000   0.000000
 -7.410015  12.834505   0.000000
  0.000000   0.000000  20.000041
PRIMCOORD
82 1
 6  14.820030   0.000000   0.474831
 6   8.645018  10.695432   0.474831
 6   1.235003   2.139084   0.474831
 6  12.350025   0.000000   0.474831
 6   2.470005   0.000000   0.474831
 6   6.175013  10.695432   0.474831
 6  13.585028   2.139084   0.474831
 6   9.880020   8.556347   0.474831
 6   2.470005   4.278179   0.474831
 6   9.880020   0.000000   0.474831
 6   4.940010   0.000000   0.474831
 6   4.940010   8.556347   0.474831
 6  12.350025   4.278179   0.474831
 6  11.115023   6.417263   0.474831
 6   3.705008   6.417263   0.474831
 6   7.410015   0.000000   0.474831
 6   7.410015   8.556347   0.474831
 6   3.705008   2.139084   0.474831
 6  11.115023   2.139084   0.474831
 6   8.645018   6.417263   0.474831
 6   4.940010   4.278179   0.474831
 6   8.645018   2.139084   0.474831
 6   6.175013   2.139084   0.474831
 6   6.175013   6.417263   0.474831
 6   9.880020   4.278179   0.474831
 6   3.705008  10.695432   0.474831
 6  -3.705008  10.695432   0.474831
 6   0.000000   4.278179   0.474831
 6   7.410015   4.278179   0.474831
 6   1.235003  10.695432   0.474831
 6  -2.470005   8.556347   0.474831
 6   1.235003   6.417263   0.474831
 6  -1.235003   6.417263   0.474831
 6  -1.235003  10.695432   0.474831
 6   2.470005   8.556347   0.474831
 6   0.000000   8.556347   0.474831
 6   7.410005  11.408473   0.474831
 6   1.235003   0.713021   0.474831
 6  13.585038   0.713031   0.474831
 6   8.645008   9.269379   0.474831
 6   2.470005   2.852106   0.474831
 6  11.115033   0.713031   0.474831
 6   3.704998   0.713031   0.474831
 6   6.175023   9.269379   0.474831
 6  12.350025   2.852106   0.474831
 6   9.880010   7.130294   0.474831
 6   3.705008   4.991200   0.474831
 6   8.645028   0.713031   0.474831
 6   6.175003   0.713031   0.474831
 6   4.940020   7.130294   0.474831
 6  11.115023   4.991200   0.474831
 6   4.940000  11.408473   0.474831
 6  -4.940010  11.408463   0.474831
 6   0.000010   2.852116   0.474831
 6   7.410005   7.130294   0.474831
 6   4.940010   2.852106   0.474831
 6   9.880030   2.852116   0.474831
 6   8.645008   4.991210   0.474831
 6   6.175013   4.991200   0.474831
 6   7.410025   2.852116   0.474831
 6   2.469995  11.408473   0.474831
 6  -3.705008   9.269369   0.474831
 6   1.235013   4.991210   0.474831
 6  -1.235013   4.991210   0.474831
 6  -2.469995  11.408473   0.474831
 6   3.705008   9.269369   0.474831
 6  -0.000010  11.408473   0.474831
 6  -2.470005   7.130284   0.474831
 6   2.470015   7.130294   0.474831
 6   1.234993   9.269379   0.474831
 6  -1.235003   9.269369   0.474831
 6   0.000010   7.130294   0.474831
16   2.300249   6.407278   3.934391
16   2.253305   5.163868   5.622711
16   1.483084   6.098481   7.246199
16   9.141232   1.893175   4.169612
16   9.978421   3.703025   3.982099
16   8.712545   5.235876   4.223729
16   3.760998   7.904314   4.170509
16   5.628565   7.151649   4.074339
11   5.507547   5.825891   7.638125
11   5.265286   3.107060   4.093738
