CRYSTAL
PRIMVEC
 14.820031   0.000000   0.000000
 -7.410015  12.834505   0.000000
  0.000000   0.000000  20.000041
PRIMCOORD
80 1
 6  14.823264   0.001175   9.886541
 6   8.648565  10.697597   9.886254
 6   1.238181   2.139233   9.876869
 6  12.353530   0.001110   9.885103
 6   2.473115   0.000959   9.883084
 6   6.178563  10.697549   9.876069
 6  13.587902   2.139196   9.888681
 6   9.883495   8.558461   9.887890
 6   2.473103   4.277028   9.848950
 6   9.883896   0.001103   9.885048
 6   4.943042   0.000777   9.881250
 6   4.943592   8.560158   9.848673
 6  12.353098   4.278398   9.890345
 6  11.118131   6.418395   9.890408
 6   3.709804   6.418243   9.827014
 6   7.413449   0.001009   9.885364
 6   7.414003   8.559871   9.872813
 6   3.707884   2.138433   9.865592
 6  11.118684   2.139466   9.892283
 6   8.649739   6.419230   9.881368
 6   4.941627   4.276660   9.841904
 6   8.649287   2.138862   9.891124
 6   6.178012   2.138654   9.874942
 6   6.179169   6.421315   9.850245
 6   9.884695   4.278434   9.893053
 6   3.708823  10.698047   9.870759
 6  -3.701972  10.697160   9.889516
 6   0.001772   4.277065   9.879440
 6   7.415741   4.277274   9.878012
 6   1.238489  10.698173   9.880026
 6  -2.467379   8.558391   9.892027
 6   1.237134   6.417753   9.863923
 6  -1.233840   6.418061   9.888185
 6  -1.232131  10.697619   9.888699
 6   2.474200   8.560923   9.856470
 6   0.002326   8.559399   9.884250
 6   7.413596  11.410064   9.884097
 6   1.238262   0.713702   9.883211
 6  13.588286   0.713591   9.887648
 6   8.648894   9.271999   9.883693
 6   2.473229   2.851330   9.863154
 6  11.118724   0.713804   9.888567
 6   3.708090   0.713270   9.877694
 6   6.178713   9.272161   9.864918
 6  12.353364   2.852428   9.891265
 6   9.884038   7.132579   9.886923
 6   3.707658   4.991598   9.830867
 6   8.648753   0.713239   9.887798
 6   6.178096   0.713205   9.880651
 6   4.943295   7.134136   9.834853
 6  11.118895   4.992311   9.891423
 6   4.943829  11.410210   9.877103
 6  -4.936670  11.410003   9.887617
 6   0.002805   2.851467   9.882158
 6   7.415272   7.134195   9.869391
 6   4.942643   2.850757   9.859362
 6   9.884098   2.852359   9.893391
 6   8.650492   4.992410   9.886246
 6   6.178247   4.991600   9.855442
 6   7.413969   2.850729   9.883117
 6   2.473633  11.410212   9.877496
 6  -3.702002   9.271421   9.890700
 6   1.237217   4.989189   9.863338
 6  -1.232667   4.991571   9.885844
 6  -2.467056  11.409851   9.887429
 6   3.709056   9.273095   9.855773
 6   0.003067  11.410160   9.885444
 6  -2.467810   7.132224   9.891698
 6   2.474758   7.133188   9.844143
 6   1.238323   9.272434   9.874513
 6  -1.232726   9.271807   9.891273
 6   0.000516   7.132807   9.882091
16   2.029800   7.799914  15.343727
16   3.974927   7.429794  15.135536
16   4.569475   7.683593  13.224796
16   3.374013   4.240175  13.285987
16   3.994283   4.552561  15.179689
16   5.945023   4.198546  15.373051
11   1.963185   6.632254  12.842193
11   5.973046   5.276248  12.829330
