CRYSTAL
PRIMVEC
 14.820031   0.000000   0.000000
 -7.410015  12.834505   0.000000
  0.000000   0.000000  20.000041
PRIMCOORD
75 1
 6  14.825226   0.002561  12.441938
 6   8.650225  10.699271  12.439128
 6   1.240675   2.142838  12.423624
 6  12.354583   0.002733  12.451570
 6   2.475239   0.003690  12.445830
 6   6.179728  10.698056  12.432512
 6  13.588938   2.141713  12.437605
 6   9.885844   8.559567  12.425163
 6   2.476831   4.280640  12.370376
 6   9.885136   0.002412  12.452614
 6   4.944921   0.003256  12.448873
 6   4.943419   8.559319  12.388516
 6  12.353577   4.280803  12.423611
 6  11.119946   6.419127  12.421957
 6   3.710001   6.418472  12.357785
 6   7.414147   0.002802  12.446433
 6   7.414264   8.559753  12.397000
 6   3.709615   2.141227  12.420869
 6  11.120213   2.141636  12.441844
 6   8.650882   6.420301  12.394434
 6   4.943616   4.279765  12.372014
 6   8.650845   2.141431  12.433784
 6   6.179052   2.143518  12.421343
 6   6.178459   6.420891  12.359655
 6   9.886493   4.280930  12.419904
 6   3.709729  10.696977  12.430906
 6  -3.699985  10.696491  12.443080
 6   0.004213   4.280110  12.396187
 6   7.414532   4.280129  12.391624
 6   1.239803  10.698122  12.433577
 6  -2.465957   8.558539  12.425979
 6   1.241131   6.420522  12.367469
 6  -1.230901   6.421010  12.405696
 6  -1.230445  10.699347  12.445236
 6   2.476712   8.559666  12.392378
 6   0.004635   8.559895  12.405499
 6   7.415124  11.411624  12.439376
 6   1.239934   0.716348  12.438942
 6  13.590034   0.714464  12.444706
 6   8.650642   9.273112  12.420588
 6   2.475796   2.854833  12.408659
 6  11.119677   0.716508  12.450362
 6   3.709962   0.716231  12.440071
 6   6.178229   9.271619  12.405473
 6  12.353810   2.854880  12.434274
 6   9.885908   7.132629  12.414873
 6   3.710230   4.993722  12.359202
 6   8.649575   0.714911  12.446074
 6   6.179606   0.716544  12.442698
 6   4.943100   7.134136  12.361679
 6  11.119852   4.994645  12.425780
 6   4.944735  11.410751  12.443492
 6  -4.934159  11.410737  12.447272
 6   0.004007   2.854565  12.415905
 6   7.414879   7.134172  12.381177
 6   4.943877   2.855103  12.406880
 6   9.886481   2.854232  12.437238
 6   8.651148   4.993419  12.395771
 6   6.178077   4.992376  12.368427
 6   7.415063   2.854752  12.412459
 6   2.474900  11.409626  12.442922
 6  -3.700036   9.271142  12.437194
 6   1.241157   4.992989  12.375932
 6  -1.232052   4.993344  12.404098
 6  -2.465759  11.411083  12.448214
 6   3.709888   9.272696  12.406161
 6   0.004436  11.411964  12.442018
 6  -2.466261   7.132960  12.420619
 6   2.476618   7.133309  12.363832
 6   1.241255   9.272286  12.411708
 6  -1.231737   9.272390  12.426917
 6   0.004434   7.134355  12.388679
16   3.884584   6.205492  16.553227
11   1.417812   6.165961  15.720165
11   6.354891   6.211843  15.712833
