CRYSTAL
PRIMVEC
 14.820031   0.000000   0.000000
 -7.410015  12.834505   0.000000
  0.000000   0.000000  20.000041
PRIMCOORD
76 1
 6  14.797031  -0.000936  10.052934
 6   8.622661  10.694171  10.049217
 6   1.210239   2.137177  10.041980
 6  12.327650   0.000001  10.057546
 6   2.445952  -0.002346  10.055247
 6   6.153832  10.695534  10.046847
 6  13.561729   2.137854  10.049609
 6   9.857976   8.554930  10.042894
 6   2.444118   4.276095  10.006100
 6   9.857654  -0.000358  10.061454
 6   4.916467  -0.003066  10.058889
 6   4.920850   8.555768  10.012599
 6  12.327272   4.276663  10.047660
 6  11.092652   6.415738  10.044825
 6   3.681431   6.414715   9.976055
 6   7.387856  -0.002308  10.062448
 6   7.389762   8.555653  10.028136
 6   3.678499   2.135177  10.036591
 6  11.092881   2.138037  10.055844
 6   8.623997   6.416650  10.028193
 6   4.916463   4.278104   9.986344
 6   8.624591   2.137074  10.053400
 6   6.154442   2.134849  10.042249
 6   6.156086   6.417569   9.989384
 6   9.858957   4.277055  10.046058
 6   3.682721  10.698293  10.052791
 6  -3.728098  10.693549  10.055947
 6  -0.024305   4.276286  10.035821
 6   7.390913   4.277471  10.018714
 6   1.211306  10.695125  10.058525
 6  -2.493266   8.554436  10.051191
 6   1.208866   6.414079  10.019450
 6  -1.258750   6.415275  10.043521
 6  -1.258361  10.693538  10.059516
 6   2.443787   8.555406  10.027376
 6  -0.025038   8.554513  10.047256
 6   7.388419  11.407553  10.050584
 6   1.211537   0.711429  10.051003
 6  13.562592   0.712283  10.054124
 6   8.623786   9.268515  10.040967
 6   2.444425   2.850168  10.027429
 6  11.092488   0.712265  10.059398
 6   3.680803   0.709255  10.053543
 6   6.156352   9.269777  10.030784
 6  12.327286   2.851327  10.051102
 6   9.858307   7.129292  10.039357
 6   3.678272   4.989338   9.980241
 6   8.622468   0.711303  10.060775
 6   6.152332   0.708654  10.058234
 6   4.919391   7.127614   9.981731
 6  11.092978   4.990081  10.046947
 6   4.918500  11.409066  10.054158
 6  -4.962699  11.406465  10.055091
 6  -0.023874   2.850576  10.042037
 6   7.389712   7.129756  10.013846
 6   4.915991   2.848037  10.022710
 6   9.858620   2.851142  10.052925
 6   8.625020   4.991053  10.031802
 6   6.155805   4.991928   9.989437
 6   7.389998   2.849786  10.038277
 6   2.446359  11.408689  10.059160
 6  -3.727678   9.267802  10.051188
 6   1.209817   4.988799  10.019498
 6  -1.258400   4.989628  10.042087
 6  -2.493371  11.406143  10.060032
 6   3.682369   9.270643  10.032669
 6  -0.023758  11.406608  10.062165
 6  -2.493220   7.128885  10.047723
 6   2.444044   7.126649  10.002004
 6   1.208303   9.269333  10.047755
 6  -1.259071   9.267870  10.054628
 6  -0.024684   7.128057  10.037848
16   5.413386   6.335127  13.937306
16   3.455970   5.633958  13.897509
11   5.194652   3.958957  12.672339
11   3.738967   8.026602  12.655637
