CRYSTAL
PRIMVEC
 14.820031   0.000000   0.000000
 -7.410015  12.834505   0.000000
  0.000000   0.000000  20.000041
PRIMCOORD
80 1
 6  14.822247  -0.000085   9.835060
 6   8.647353  10.696317   9.842236
 6   1.236966   2.138100   9.838075
 6  12.353265  -0.000329   9.842718
 6   2.472461  -0.000626   9.838910
 6   6.178313  10.696527   9.839316
 6  13.588403   2.138359   9.849309
 6   9.881884   8.557401   9.863435
 6   2.472535   4.278495   9.812916
 6   9.882984   0.000312   9.852041
 6   4.942077  -0.000249   9.848839
 6   4.942263   8.556563   9.820904
 6  12.353732   4.278268   9.870197
 6  11.117545   6.417889   9.877600
 6   3.707529   6.417653   9.797253
 6   7.412458   0.000023   9.853890
 6   7.412959   8.557087   9.844839
 6   3.707916   2.139211   9.834259
 6  11.117700   2.138302   9.861674
 6   8.646837   6.417838   9.855084
 6   4.942185   4.278825   9.812627
 6   8.646937   2.139294   9.856831
 6   6.177809   2.138676   9.842560
 6   6.177312   6.417188   9.822366
 6   9.881838   4.277992   9.868212
 6   3.707582  10.695475   9.839335
 6  -3.703312  10.696657   9.851723
 6   0.002147   4.278226   9.843508
 6   7.413636   4.278271   9.842037
 6   1.237560  10.695001   9.845059
 6  -2.466531   8.557347   9.864222
 6   1.237703   6.417649   9.820567
 6  -1.231931   6.418173   9.855183
 6  -1.232420  10.695475   9.854074
 6   2.471568   8.557102   9.822206
 6   0.001598   8.556815   9.841236
 6   7.413075  11.409594   9.837038
 6   1.236632   0.712339   9.836810
 6  13.588033   0.712724   9.839958
 6   8.646771   9.270639   9.851982
 6   2.472490   2.852240   9.828342
 6  11.118095   0.712677   9.851691
 6   3.707328   0.712826   9.843111
 6   6.177604   9.270040   9.836487
 6  12.353288   2.851288   9.861689
 6   9.881567   7.130496   9.868664
 6   3.707889   4.991443   9.799801
 6   8.647464   0.713888   9.855405
 6   6.177538   0.713982   9.849853
 6   4.942058   7.130293   9.808046
 6  11.117009   4.991007   9.877410
 6   4.942448  11.409578   9.840664
 6  -4.937896  11.409361   9.841832
 6   0.001787   2.851769   9.844381
 6   7.412940   7.130324   9.842263
 6   4.942947   2.852004   9.829574
 6   9.882011   2.851928   9.864436
 6   8.647245   4.990732   9.855116
 6   6.177784   4.991594   9.824046
 6   7.413300   2.851623   9.847641
 6   2.472648  11.408819   9.845203
 6  -3.703255   9.270746   9.862642
 6   1.237741   4.991275   9.824356
 6  -1.231726   4.990988   9.856987
 6  -2.467652  11.409129   9.852254
 6   3.707417   9.269752   9.826340
 6   0.002550  11.408688   9.852192
 6  -2.466432   7.130666   9.869349
 6   2.472547   7.130048   9.808927
 6   1.237501   9.270404   9.835652
 6  -1.231847   9.269695   9.853902
 6   0.001653   7.131216   9.836770
16   2.617077   8.097480  16.056495
16   4.274254   7.370531  15.172045
16   4.387544   7.715793  13.212861
16   3.611927   4.260204  13.210503
16   3.687903   4.609727  15.169896
16   5.333407   3.897987  16.085965
11   0.488430   6.431431  13.360336
11   7.483424   5.501182  13.347603
