CRYSTAL
PRIMVEC
 14.820031   0.000000   0.000000
 -7.410015  12.834505   0.000000
  0.000000   0.000000  20.000041
PRIMCOORD
76 1
 6  14.798274  -0.002733  10.051640
 6   8.623356  10.691996  10.050655
 6   1.212835   2.136587  10.046301
 6  12.328599  -0.002267  10.048225
 6   2.447633  -0.003313  10.047371
 6   6.154078  10.692278  10.036683
 6  13.563268   2.136539  10.055765
 6   9.858303   8.553024  10.054307
 6   2.448019   4.275931  10.000339
 6   9.858526  -0.002523  10.047449
 6   4.917832  -0.003606  10.040317
 6   4.919891   8.552240   9.984633
 6  12.328390   4.275254  10.057852
 6  11.093288   6.414183  10.058218
 6   3.683679   6.414116   9.956382
 6   7.388466  -0.003391  10.044651
 6   7.388755   8.552767  10.030291
 6   3.681566   2.135875  10.023579
 6  11.093402   2.136512  10.053110
 6   8.622828   6.414602  10.039846
 6   4.917646   4.277242   9.973794
 6   8.623763   2.136238  10.044428
 6   6.153995   2.135534  10.020978
 6   6.154346   6.415182   9.974326
 6   9.858283   4.275623  10.052059
 6   3.683815  10.693652  10.026238
 6  -3.727075  10.691826  10.050987
 6  -0.021348   4.275363  10.047858
 6   7.388468   4.276411  10.017222
 6   1.213049  10.692324  10.039714
 6  -2.491864   8.552904  10.055311
 6   1.213407   6.413362  10.017216
 6  -1.256488   6.413939  10.053582
 6  -1.256965  10.691871  10.048554
 6   2.447471   8.552183   9.998703
 6  -0.022084   8.552729  10.041098
 6   7.388783  11.405484  10.048106
 6   1.213049   0.710300  10.050102
 6  13.563555   0.710657  10.052905
 6   8.623418   9.265890  10.048481
 6   2.447409   2.850216  10.025823
 6  11.093442   0.710626  10.050545
 6   3.682485   0.709628  10.039238
 6   6.154610   9.266011  10.018505
 6  12.328343   2.849463  10.056267
 6   9.858065   7.127123  10.054104
 6   3.681962   4.988928   9.966472
 6   8.623258   0.710114  10.046504
 6   6.153209   0.709050  10.036101
 6   4.918730   7.126111   9.959243
 6  11.093320   4.988329  10.057494
 6   4.918993  11.406122  10.037529
 6  -4.961871  11.405052  10.050310
 6  -0.021816   2.849500  10.051575
 6   7.387984   7.127004  10.014414
 6   4.917511   2.849437  10.004467
 6   9.858385   2.849488  10.050782
 6   8.623403   4.988923  10.039730
 6   6.154115   4.989961   9.980035
 6   7.388800   2.849601  10.026159
 6   2.448205  11.405884  10.038362
 6  -3.726810   9.265943  10.055073
 6   1.213526   4.988034  10.024019
 6  -1.256394   4.988102  10.055400
 6  -2.492121  11.404856  10.048034
 6   3.683941   9.266359   9.998118
 6  -0.022121  11.405018  10.046911
 6  -2.491662   7.127035  10.057990
 6   2.448223   7.125636   9.983126
 6   1.212188   9.266118  10.027853
 6  -1.257065   9.265896  10.050950
 6  -0.021313   7.126375  10.040369
16   5.406589   6.347723  13.540854
16   3.452901   5.682627  13.533232
11   5.262849   3.579499  13.242111
11   3.603531   8.459606  13.271685
