CRYSTAL
PRIMVEC
 14.820031   0.000000   0.000000
 -7.410015  12.834505   0.000000
  0.000000   0.000000  20.000041
PRIMCOORD
82 1
 6  14.820030   0.000000   0.474831
 6   8.645018  10.695432   0.474831
 6   1.235003   2.139084   0.474831
 6  12.350025   0.000000   0.474831
 6   2.470005   0.000000   0.474831
 6   6.175013  10.695432   0.474831
 6  13.585028   2.139084   0.474831
 6   9.880020   8.556347   0.474831
 6   2.470005   4.278179   0.474831
 6   9.880020   0.000000   0.474831
 6   4.940010   0.000000   0.474831
 6   4.940010   8.556347   0.474831
 6  12.350025   4.278179   0.474831
 6  11.115023   6.417263   0.474831
 6   3.705008   6.417263   0.474831
 6   7.410015   0.000000   0.474831
 6   7.410015   8.556347   0.474831
 6   3.705008   2.139084   0.474831
 6  11.115023   2.139084   0.474831
 6   8.645018   6.417263   0.474831
 6   4.940010   4.278179   0.474831
 6   8.645018   2.139084   0.474831
 6   6.175013   2.139084   0.474831
 6   6.175013   6.417263   0.474831
 6   9.880020   4.278179   0.474831
 6   3.705008  10.695432   0.474831
 6  -3.705008  10.695432   0.474831
 6   0.000000   4.278179   0.474831
 6   7.410015   4.278179   0.474831
 6   1.235003  10.695432   0.474831
 6  -2.470005   8.556347   0.474831
 6   1.235003   6.417263   0.474831
 6  -1.235003   6.417263   0.474831
 6  -1.235003  10.695432   0.474831
 6   2.470005   8.556347   0.474831
 6   0.000000   8.556347   0.474831
 6   7.410005  11.408473   0.474831
 6   1.235003   0.713021   0.474831
 6  13.585038   0.713031   0.474831
 6   8.645008   9.269379   0.474831
 6   2.470005   2.852106   0.474831
 6  11.115033   0.713031   0.474831
 6   3.704998   0.713031   0.474831
 6   6.175023   9.269379   0.474831
 6  12.350025   2.852106   0.474831
 6   9.880010   7.130294   0.474831
 6   3.705008   4.991200   0.474831
 6   8.645028   0.713031   0.474831
 6   6.175003   0.713031   0.474831
 6   4.940020   7.130294   0.474831
 6  11.115023   4.991200   0.474831
 6   4.940000  11.408473   0.474831
 6  -4.940010  11.408463   0.474831
 6   0.000010   2.852116   0.474831
 6   7.410005   7.130294   0.474831
 6   4.940010   2.852106   0.474831
 6   9.880030   2.852116   0.474831
 6   8.645008   4.991210   0.474831
 6   6.175013   4.991200   0.474831
 6   7.410025   2.852116   0.474831
 6   2.469995  11.408473   0.474831
 6  -3.705008   9.269369   0.474831
 6   1.235013   4.991210   0.474831
 6  -1.235013   4.991210   0.474831
 6  -2.469995  11.408473   0.474831
 6   3.705008   9.269369   0.474831
 6  -0.000010  11.408473   0.474831
 6  -2.470005   7.130284   0.474831
 6   2.470015   7.130294   0.474831
 6   1.234993   9.269379   0.474831
 6  -1.235003   9.269369   0.474831
 6   0.000010   7.130294   0.474831
16   2.081681   6.247520   3.880108
16   2.968151   4.384468   4.238227
16   3.722142   4.202720   6.104710
16   6.796152   1.906142   3.977989
16   8.619700   2.707896   4.040336
16   8.640268   4.702766   3.996755
16   3.432039   7.718499   4.531126
16   5.344501   7.366579   3.976537
11   5.022638   6.705635   6.919444
11   5.783296   4.571041   3.764283
