CRYSTAL
PRIMVEC
 14.820031   0.000000   0.000000
 -7.410015  12.834505   0.000000
  0.000000   0.000000  20.000041
PRIMCOORD
76 1
 6  14.798073  -0.002748  10.008189
 6   8.623210  10.692745  10.012343
 6   1.213805   2.136860  10.019985
 6  12.328149  -0.003449  10.001363
 6   2.448777  -0.002226  10.010238
 6   6.152729  10.691896  10.011870
 6  13.563258   2.136240  10.008228
 6   9.858124   8.553989  10.014883
 6   2.449480   4.275896  10.031986
 6   9.858083  -0.003403  10.005619
 6   4.918771  -0.001655  10.006098
 6   4.918006   8.552321  10.022921
 6  12.328322   4.275407  10.007111
 6  11.093204   6.414959  10.012235
 6   3.683950   6.414305  10.032529
 6   7.388365  -0.002164  10.011078
 6   7.387710   8.553378  10.028435
 6   3.683809   2.137224  10.019445
 6  11.092878   2.136478  10.003193
 6   8.622609   6.414811  10.028440
 6   4.918293   4.276275  10.032274
 6   8.622663   2.136870  10.014733
 6   6.153309   2.137184  10.012764
 6   6.152662   6.414303  10.035401
 6   9.857737   4.275565  10.015985
 6   3.683195  10.691614  10.004499
 6  -3.726650  10.693249  10.004233
 6  -0.021081   4.275380  10.023331
 6   7.387244   4.275787  10.029389
 6   1.213925  10.692108  10.009138
 6  -2.491386   8.554069  10.005466
 6   1.214566   6.414484  10.028139
 6  -1.256172   6.414673  10.013620
 6  -1.256160  10.693015  10.005620
 6   2.448784   8.552564  10.017637
 6  -0.020927   8.553670  10.013735
 6   7.387856  11.405520  10.010466
 6   1.213358   0.710581  10.012938
 6  13.563106   0.710138  10.004608
 6   8.622827   9.266506  10.019457
 6   2.448984   2.849991  10.025337
 6  11.092983   0.710068  10.001628
 6   3.683649   0.711311  10.010404
 6   6.152778   9.265812  10.022169
 6  12.328175   2.849350  10.003914
 6   9.857965   7.128079  10.018163
 6   3.683905   4.988899  10.033416
 6   8.622902   0.710544  10.010797
 6   6.153541   0.711410  10.009125
 6   4.917837   7.126556  10.031376
 6  11.093115   4.988746  10.010263
 6   4.917826  11.404871  10.004158
 6  -4.961482  11.406230  10.007028
 6  -0.021543   2.849512  10.018077
 6   7.387015   7.127308  10.033020
 6   4.918536   2.850216  10.019855
 6   9.857868   2.849562  10.010998
 6   8.622446   4.988482  10.027077
 6   6.152964   4.988742  10.034802
 6   7.387795   2.850104  10.018566
 6   2.448499  11.404916  10.005304
 6  -3.726633   9.267231  10.006609
 6   1.214342   4.988214  10.031030
 6  -1.256252   4.988452  10.014596
 6  -2.491487  11.406565  10.002504
 6   3.683414   9.265723  10.012425
 6  -0.021096  11.405999  10.009097
 6  -2.491471   7.128012  10.008073
 6   2.449737   7.126907  10.027989
 6   1.214122   9.265941  10.012812
 6  -1.255861   9.266628  10.006968
 6  -0.020626   7.127635  10.018493
16   5.369411   6.350182  13.982084
16   3.450878   5.658978  13.949199
11   5.710351   2.518219  13.450738
11   3.189964   9.518372  13.470940
