CRYSTAL
PRIMVEC
 14.820031   0.000000   0.000000
 -7.410015  12.834505   0.000000
  0.000000   0.000000  20.000041
PRIMCOORD
72 1
 6  -7.410015  12.834523   0.000000
 6  -1.235003   2.139087   0.000000
 6   6.175013  10.695436   0.000000
 6  -4.940010  12.834523   0.000000
 6   4.940010  12.834523   0.000000
 6   1.235003   2.139087   0.000000
 6  -6.175013  10.695436   0.000000
 6  -2.470005   4.278175   0.000000
 6   4.940010   8.556349   0.000000
 6  -2.470005  12.834523   0.000000
 6   2.470005  12.834523   0.000000
 6   2.470005   4.278175   0.000000
 6  -4.940010   8.556349   0.000000
 6  -3.705008   6.417262   0.000000
 6   3.705008   6.417262   0.000000
 6   0.000000  12.834523   0.000000
 6  -0.000000   4.278175   0.000000
 6   3.705008  10.695436   0.000000
 6  -3.705008  10.695436   0.000000
 6  -1.235003   6.417262   0.000000
 6   2.470005   8.556349   0.000000
 6  -1.235003  10.695436   0.000000
 6   1.235003  10.695436   0.000000
 6   1.235003   6.417262   0.000000
 6  -2.470005   8.556349   0.000000
 6   3.705008   2.139087   0.000000
 6  11.115023   2.139087   0.000000
 6   7.410015   8.556349   0.000000
 6   0.000000   8.556349   0.000000
 6   6.175013   2.139087   0.000000
 6   9.880020   4.278175   0.000000
 6   6.175013   6.417262   0.000000
 6   8.645018   6.417262   0.000000
 6   8.645018   2.139087   0.000000
 6   4.940010   4.278175   0.000000
 6   7.410015   4.278175   0.000000
 6  -0.000000   1.426058   0.000000
 6   6.175013  12.121494   0.000000
 6  -6.175013  12.121494   0.000000
 6  -1.235003   3.565145   0.000000
 6   4.940010   9.982407   0.000000
 6  -3.705008  12.121494   0.000000
 6   3.705008  12.121494   0.000000
 6   1.235003   3.565145   0.000000
 6  -4.940010   9.982407   0.000000
 6  -2.470005   5.704233   0.000000
 6   3.705008   7.843320   0.000000
 6  -1.235003  12.121494   0.000000
 6   1.235003  12.121494   0.000000
 6   2.470005   5.704233   0.000000
 6  -3.705008   7.843320   0.000000
 6   2.470005   1.426058   0.000000
 6  12.350025   1.426058   0.000000
 6   7.410015   9.982407   0.000000
 6  -0.000000   5.704233   0.000000
 6   2.470005   9.982407   0.000000
 6  -2.470005   9.982407   0.000000
 6  -1.235003   7.843320   0.000000
 6   1.235003   7.843320   0.000000
 6   0.000000   9.982407   0.000000
 6   4.940010   1.426058   0.000000
 6  11.115023   3.565145   0.000000
 6   6.175013   7.843320   0.000000
 6   8.645018   7.843320   0.000000
 6   9.880020   1.426058   0.000000
 6   3.705008   3.565145   0.000000
 6   7.410015   1.426058   0.000000
 6   9.880020   5.704233   0.000000
 6   4.940010   5.704233   0.000000
 6   6.175013   3.565145   0.000000
 6   8.645018   3.565145   0.000000
 6   7.410015   5.704233   0.000000
