CRYSTAL
PRIMVEC
 14.820031   0.000000   0.000000
 -7.410015  12.834505   0.000000
  0.000000   0.000000  20.000041
PRIMCOORD
72 1
 6  14.824456   0.002357   0.258609
 6   8.650156  10.698838   0.261647
 6   1.239064   2.139837   0.261566
 6  12.354529   0.002320   0.256070
 6   2.474562   0.002024   0.257783
 6   6.179556  10.699501   0.255595
 6  13.588641   2.140139   0.264276
 6   9.885288   8.559392   0.270844
 6   2.475222   4.276982   0.254235
 6   9.884703   0.002339   0.255818
 6   4.944538   0.002092   0.256676
 6   4.944173   8.562106   0.244606
 6  12.353708   4.279276   0.273114
 6  11.119655   6.419204   0.276352
 6   3.709742   6.418997   0.237426
 6   7.414684   0.002375   0.257706
 6   7.415656   8.561862   0.263931
 6   3.709436   2.139198   0.256039
 6  11.119737   2.140555   0.264542
 6   8.652271   6.419237   0.274132
 6   4.943722   4.276711   0.251648
 6   8.650493   2.139989   0.264492
 6   6.179850   2.139921   0.259962
 6   6.180140   6.420325   0.253975
 6   9.885677   4.279017   0.273777
 6   3.709488  10.699616   0.250078
 6  -3.700330  10.698136   0.262683
 6   0.001729   4.277612   0.271086
 6   7.416924   4.277403   0.268941
 6   1.239382  10.699444   0.254178
 6  -2.465903   8.559209   0.270039
 6   1.237844   6.420504   0.258926
 6  -1.232959   6.419454   0.273368
 6  -1.231027  10.698744   0.260093
 6   2.474817   8.562532   0.246686
 6   0.003248   8.561401   0.262292
 6   7.415015  11.411409   0.259088
 6   1.239769   0.714423   0.259266
 6  13.589544   0.714761   0.258716
 6   8.650991   9.273538   0.266006
 6   2.474544   2.851114   0.257850
 6  11.119605   0.714740   0.258082
 6   3.709506   0.713997   0.256240
 6   6.179606   9.274069   0.254197
 6  12.354343   2.853446   0.267289
 6   9.886087   7.133486   0.274899
 6   3.709724   4.991666   0.242841
 6   8.649763   0.714735   0.258448
 6   6.179384   0.714430   0.258161
 6   4.943326   7.135437   0.241327
 6  11.119629   4.993180   0.276152
 6   4.944590  11.411689   0.252826
 6  -4.934859  11.411029   0.259825
 6   0.003504   2.852201   0.266727
 6   7.417721   7.135159   0.268497
 6   4.944454   2.851442   0.256313
 6   9.885092   2.853118   0.267919
 6   8.651681   4.992551   0.273193
 6   6.180118   4.989934   0.260431
 6   7.415477   2.851922   0.265551
 6   2.474479  11.411569   0.251804
 6  -3.700315   9.272420   0.269342
 6   1.238327   4.990346   0.264756
 6  -1.232488   4.992821   0.273070
 6  -2.465821  11.411062   0.258943
 6   3.709501   9.274823   0.245370
 6   0.003954  11.411487   0.257606
 6  -2.466521   7.133491   0.273958
 6   2.475714   7.135409   0.244052
 6   1.239268   9.274122   0.253908
 6  -1.231725   9.273226   0.264080
 6   0.000859   7.135246   0.268241
