CRYSTAL
PRIMVEC
 14.820031   0.000000   0.000000
 -7.410015  12.834505   0.000000
  0.000000   0.000000  20.000041
PRIMCOORD
72 1
 6  -7.409924  12.834488   0.000000
 6  -1.234188   2.139992   0.000000
 6   6.171877  10.690709   0.000000
 6  -4.940086  12.836705   0.000000
 6   4.939649  12.833392   0.000000
 6   1.237543   2.144193   0.000000
 6  -6.176925  10.694437   0.000000
 6  -2.468824   4.278445   0.000000
 6   4.935503   8.543541   0.000000
 6  -2.469918  12.836705   0.000000
 6   2.470376  12.833392   0.000000
 6   2.478858   4.288508   0.000000
 6  -4.941841   8.555209   0.000000
 6  -3.705002   6.417375   0.000000
 6  -0.000080  12.834488   0.000000
 6   0.002941   4.279884   0.000000
 6   3.705013  10.692061   0.000000
 6  -3.705002  10.695450   0.000000
 6  -1.229320   6.416927   0.000000
 6   2.474523   8.543541   0.000000
 6  -1.233079  10.694437   0.000000
 6   1.238149  10.690709   0.000000
 6   1.248368   6.419780   0.000000
 6  -2.468163   8.555209   0.000000
 6   3.705013   2.143439   0.000000
 6  11.115028   2.139102   0.000000
 6   7.406264   8.554195   0.000000
 6   0.003761   8.554195   0.000000
 6   6.172482   2.144193   0.000000
 6   9.878850   4.278445   0.000000
 6   6.161658   6.419780   0.000000
 6   8.639346   6.416927   0.000000
 6   8.644214   2.139992   0.000000
 6   4.931167   4.288508   0.000000
 6   7.407085   4.279884   0.000000
 6   0.001100   1.428653   0.000000
 6   6.173331  12.119271   0.000000
 6  -6.176816  12.122553   0.000000
 6  -1.233675   3.565923   0.000000
 6   4.933617   9.975180   0.000000
 6  -3.705002  12.122472   0.000000
 6   3.705013  12.119982   0.000000
 6   1.238080   3.574322   0.000000
 6  -4.940839   9.981940   0.000000
 6  -2.467218   5.703905   0.000000
 6   3.705013   7.831057   0.000000
 6  -1.233189  12.122553   0.000000
 6   1.236695  12.119271   0.000000
 6   2.480643   5.710386   0.000000
 6  -3.705002   7.841246   0.000000
 6   2.468995   1.428239   0.000000
 6  12.349859   1.426172   0.000000
 6   7.407636   9.982218   0.000000
 6   0.009475   5.702327   0.000000
 6   2.476408   9.975180   0.000000
 6  -2.469165   9.981940   0.000000
 6  -1.233629   7.841372   0.000000
 6   1.233177   7.844391   0.000000
 6   0.002389   9.982218   0.000000
 6   4.941031   1.428239   0.000000
 6  11.115028   3.564962   0.000000
 6   6.176849   7.844391   0.000000
 6   8.643654   7.841372   0.000000
 6   9.880197   1.426172   0.000000
 6   3.705013   3.563046   0.000000
 6   7.408926   1.428653   0.000000
 6   9.877244   5.703905   0.000000
 6   4.929383   5.710386   0.000000
 6   6.171946   3.574322   0.000000
 6   8.643701   3.565923   0.000000
 6   7.400550   5.702327   0.000000
 7   3.705013   6.417276   0.000000
