CRYSTAL
PRIMVEC
 17.029504   0.000000   0.000000
  0.000000  17.029504   0.000000
  0.000000   0.000000  20.000041
PRIMCOORD
108 1
28  17.029520   0.000015   5.676512
28   2.838266   0.000015   2.838256
28  17.029520   2.838264   2.838256
28   2.838266   2.838264   5.676512
28  17.029520   5.676514   5.676512
28  17.029520  11.353014   5.676512
28   2.838266  11.353014   2.838256
28   2.838266   5.676514   2.838256
28  17.029520   8.514764   2.838256
28  17.029520  14.191263   2.838256
28   2.838266  14.191263   5.676512
28   2.838266   8.514764   5.676512
28   5.676521   0.000015   5.676512
28  11.353020   0.000015   5.676512
28  11.353020   2.838264   2.838256
28   5.676521   2.838264   2.838256
28   8.514765   2.838264   5.676512
28  14.191264   2.838264   5.676512
28  14.191264   0.000015   2.838256
28   8.514765   0.000015   2.838256
28   5.676521   5.676514   5.676512
28  11.353020  11.353014   5.676512
28  14.191264  11.353014   2.838256
28   8.514765   5.676514   2.838256
28  11.353020   8.514764   2.838256
28   5.676521  14.191263   2.838256
28   8.514765  14.191263   5.676512
28  14.191264   8.514764   5.676512
28   5.676521  11.353014   5.676512
28  11.353020   5.676514   5.676512
28  14.191264   5.676514   2.838256
28   8.514765  11.353014   2.838256
28  11.353020  14.191263   2.838256
28   5.676521   8.514764   2.838256
28   8.514765   8.514764   5.676512
28  14.191264  14.191263   5.676512
16   2.239621   2.239621   2.239609
16  14.789915  14.789913   3.436902
16   0.598666  14.789913   5.077865
16   5.077870   2.239621   0.598646
16  14.789915   5.077871   0.598646
16   2.239621   0.598664   5.077865
16   5.077870   0.598664   3.436902
16   0.598666   5.077871   2.239609
16   2.239621   7.916120   2.239609
16  14.789915   9.113413   3.436902
16   0.598666   9.113413   5.077865
16   5.077870   7.916120   0.598646
16  14.789915  10.754370   0.598646
16   2.239621  11.951663   5.077865
16   5.077870  11.951663   3.436902
16   0.598666  10.754370   2.239609
16   7.916120   2.239621   2.239609
16   9.113416  14.789913   3.436902
16   9.113416   5.077871   0.598646
16   7.916120   0.598664   5.077865
16  10.754370   0.598664   3.436902
16  11.951665   5.077871   2.239609
16  11.951665  14.789913   5.077865
16  10.754370   2.239621   0.598646
16   2.239621  13.592620   2.239609
16  14.789915   3.436914   3.436902
16   0.598666   3.436914   5.077865
16   5.077870  13.592620   0.598646
16  14.789915  16.430870   0.598646
16   2.239621   6.275164   5.077865
16   5.077870   6.275164   3.436902
16   0.598666  16.430870   2.239609
16  13.592620   2.239621   2.239609
16   3.436916  14.789913   3.436902
16   3.436916   5.077871   0.598646
16  13.592620   0.598664   5.077865
16  16.430869   0.598664   3.436902
16   6.275166   5.077871   2.239609
16   6.275166  14.789913   5.077865
16  16.430869   2.239621   0.598646
16   7.916120   7.916120   2.239609
16   9.113416   9.113413   3.436902
16  11.951665   9.113413   5.077865
16  10.754370   7.916120   0.598646
16   9.113416  10.754370   0.598646
16   7.916120  11.951663   5.077865
16  10.754370  11.951663   3.436902
16  11.951665  10.754370   2.239609
16   7.916120  13.592620   2.239609
16   9.113416   3.436914   3.436902
16  11.951665   3.436914   5.077865
16  10.754370  13.592620   0.598646
16   9.113416  16.430870   0.598646
16   7.916120   6.275164   5.077865
16  10.754370   6.275164   3.436902
16  11.951665  16.430870   2.239609
16  13.592620   7.916120   2.239609
16   3.436916   9.113413   3.436902
16   6.275166   9.113413   5.077865
16  16.430869   7.916120   0.598646
16   3.436916  10.754370   0.598646
16  13.592620  11.951663   5.077865
16  16.430869  11.951663   3.436902
16   6.275166  10.754370   2.239609
16  13.592620  13.592620   2.239609
16   3.436916   3.436914   3.436902
16   6.275166   3.436914   5.077865
16  16.430869  13.592620   0.598646
16   3.436916  16.430870   0.598646
16  13.592620   6.275164   5.077865
16  16.430869   6.275164   3.436902
16   6.275166  16.430870   2.239609
