CRYSTAL
PRIMVEC
 14.820031   0.000000   0.000000
 -7.410015  12.834505   0.000000
  0.000000   0.000000  15.000004
PRIMCOORD
76 1
 6  14.796025  -0.000443  10.037023
 6   8.621889  10.694564  10.036880
 6   1.208919   2.137151  10.019568
 6  12.326637   0.000498  10.048273
 6   2.444898  -0.002215  10.040670
 6   6.153040  10.696341  10.037065
 6  13.560664   2.138166  10.030712
 6   9.857238   8.555583  10.027916
 6   2.442659   4.275704   9.999837
 6   9.856691   0.000086  10.060142
 6   4.915564  -0.002833  10.053011
 6   4.919820   8.557452  10.021912
 6  12.326265   4.276758  10.030839
 6  11.091727   6.416133  10.028671
 6   3.679977   6.415225   9.998771
 6   7.386888  -0.001854  10.061248
 6   7.389385   8.556581  10.017619
 6   3.677638   2.135190  10.034921
 6  11.091958   2.138267  10.050040
 6   8.623601   6.416995  10.021428
 6   4.915256   4.277397  10.016666
 6   8.623597   2.137267  10.059320
 6   6.153165   2.135163  10.056849
 6   6.155990   6.417706  10.006480
 6   9.858108   4.277217  10.042011
 6   3.681534  10.698885  10.053042
 6  -3.729204  10.693752  10.043807
 6  -0.025848   4.276194  10.008577
 6   7.390117   4.277274  10.037507
 6   1.210166  10.695468  10.055967
 6  -2.494501   8.554904  10.033537
 6   1.207309   6.414377  10.008408
 6  -1.260095   6.415393  10.019314
 6  -1.259482  10.693902  10.049361
 6   2.442899   8.556441  10.036175
 6  -0.026049   8.555106  10.033490
 6   7.387659  11.408189  10.038031
 6   1.210519   0.711488  10.032958
 6  13.561518   0.712734  10.038328
 6   8.623249   9.269104  10.027418
 6   2.443247   2.849623  10.014089
 6  11.091565   0.712739  10.054316
 6   3.679836   0.709525  10.044400
 6   6.155936   9.270916  10.025549
 6  12.326383   2.851329  10.037495
 6   9.857653   7.129901  10.024947
 6   3.677180   4.988738  10.000808
 6   8.621515   0.711561  10.062444
 6   6.151259   0.709063  10.059358
 6   4.918721   7.128608  10.002822
 6  11.092175   4.990425  10.034550
 6   4.917414  11.409705  10.047102
 6  -4.963706  11.406691  10.042545
 6  -0.025195   2.850578  10.016818
 6   7.389613   7.130437  10.011410
 6   4.914900   2.847747  10.041823
 6   9.857692   2.851175  10.052192
 6   8.624328   4.991246  10.034026
 6   6.154659   4.991568  10.019142
 6   7.388774   2.849732  10.053946
 6   2.445295  11.409146  10.058367
 6  -3.728676   9.268301  10.036059
 6   1.208207   4.988977  10.000161
 6  -1.259721   4.989744  10.017570
 6  -2.494408  11.406376  10.050174
 6   3.680897   9.271660  10.041521
 6  -0.024841  11.407016  10.056747
 6  -2.494238   7.129313  10.027046
 6   2.442488   7.127836  10.011753
 6   1.207276   9.269740  10.045293
 6  -1.260228   9.268265  10.038654
 6  -0.026015   7.128538  10.018588
16   5.382556   6.353347  14.192607
16   3.443614   5.624049  14.050741
11   5.229213   4.081878  12.715259
11   3.820257   7.871377  12.574543
