CRYSTAL
PRIMVEC
 14.820031   0.000000   0.000000
 -7.410015  12.834505   0.000000
  0.000000   0.000000  20.000041
PRIMCOORD
80 1
 6  14.822540   0.001066   9.861463
 6   8.647797  10.697161   9.861943
 6   1.237498   2.139152   9.858763
 6  12.352749   0.001206   9.863875
 6   2.472644   0.000822   9.859656
 6   6.177676  10.697370   9.853199
 6  13.587434   2.139413   9.871041
 6   9.882835   8.558336   9.875873
 6   2.472198   4.276830   9.849345
 6   9.883091   0.001112   9.869779
 6   4.942436   0.000920   9.864663
 6   4.943157   8.559766   9.842315
 6  12.352552   4.278356   9.886745
 6  11.117542   6.418369   9.889503
 6   3.709048   6.418141   9.841247
 6   7.412770   0.001052   9.871276
 6   7.413307   8.559433   9.858539
 6   3.707178   2.138499   9.851348
 6  11.118066   2.139624   9.879035
 6   8.649108   6.419281   9.878955
 6   4.941268   4.276667   9.850597
 6   8.648757   2.138967   9.879122
 6   6.177660   2.138553   9.865025
 6   6.178460   6.420836   9.858607
 6   9.884011   4.278514   9.888083
 6   3.708038  10.697928   9.853126
 6  -3.702520  10.697021   9.870792
 6   0.001246   4.277322   9.873081
 6   7.415136   4.277447   9.879586
 6   1.237781  10.698092   9.867155
 6  -2.467908   8.558114   9.884287
 6   1.236225   6.417727   9.872551
 6  -1.234160   6.417877   9.888131
 6  -1.232803  10.697420   9.874357
 6   2.473339   8.560891   9.856116
 6   0.001583   8.559259   9.877915
 6   7.412855  11.409788   9.858453
 6   1.237709   0.713633   9.859635
 6  13.587736   0.713854   9.864914
 6   8.648177   9.271528   9.865081
 6   2.472478   2.851323   9.851193
 6  11.118078   0.713884   9.870422
 6   3.707383   0.713349   9.857529
 6   6.177981   9.271833   9.849077
 6  12.352999   2.852610   9.879533
 6   9.883428   7.132506   9.882700
 6   3.706867   4.991261   9.841393
 6   8.648064   0.713366   9.873986
 6   6.177362   0.713226   9.867328
 6   4.942884   7.133973   9.842328
 6  11.118271   4.992379   9.890084
 6   4.942972  11.410264   9.855000
 6  -4.937362  11.409677   9.864123
 6   0.002369   2.851814   9.867002
 6   7.414530   7.133689   9.865745
 6   4.942013   2.850674   9.853850
 6   9.883446   2.852561   9.883306
 6   8.649785   4.992595   9.884571
 6   6.177871   4.991682   9.866083
 6   7.413470   2.850931   9.875895
 6   2.473001  11.410057   9.862550
 6  -3.702569   9.271220   9.877805
 6   1.236758   4.989566   9.865655
 6  -1.233098   4.991544   9.884270
 6  -2.467738  11.409844   9.870421
 6   3.708667   9.272804   9.846639
 6   0.002374  11.409945   9.871329
 6  -2.468160   7.132033   9.889288
 6   2.473702   7.132999   9.856025
 6   1.237454   9.272484   9.866844
 6  -1.233360   9.271603   9.879769
 6   0.000192   7.132668   9.882680
16   1.963208   7.740809  15.354576
16   3.924347   7.418534  15.270492
16   4.639523   7.701484  13.405403
16   3.328230   4.216405  13.472437
16   4.043941   4.576938  15.325040
16   6.006154   4.269700  15.421293
11   2.098148   6.675814  12.808415
11   5.865744   5.217978  12.829560
