CRYSTAL
PRIMVEC
 14.820031   0.000000   0.000000
 -7.410015  12.834505   0.000000
  0.000000   0.000000  20.000041
PRIMCOORD
75 1
 6  14.824456   0.002357  12.429685
 6   8.650156  10.698839  12.432723
 6   1.239064   2.139837  12.432642
 6  12.354529   0.002320  12.427145
 6   2.474563   0.002024  12.428858
 6   6.179556  10.699501  12.426671
 6  13.588642   2.140139  12.435351
 6   9.885288   8.559392  12.441920
 6   2.475222   4.276983  12.425310
 6   9.884703   0.002339  12.426894
 6   4.944538   0.002092  12.427752
 6   4.944173   8.562106  12.415682
 6  12.353708   4.279276  12.444189
 6  11.119655   6.419204  12.447427
 6   3.709742   6.418998  12.408501
 6   7.414684   0.002374  12.428781
 6   7.415656   8.561861  12.435006
 6   3.709436   2.139198  12.427115
 6  11.119737   2.140555  12.435618
 6   8.652271   6.419237  12.445208
 6   4.943723   4.276712  12.422724
 6   8.650493   2.139989  12.435567
 6   6.179850   2.139921  12.431038
 6   6.180141   6.420325  12.425050
 6   9.885677   4.279017  12.444853
 6   3.709488  10.699616  12.421154
 6  -3.700330  10.698136  12.433759
 6   0.001729   4.277613  12.442161
 6   7.416924   4.277403  12.440015
 6   1.239382  10.699444  12.425253
 6  -2.465903   8.559209  12.441115
 6   1.237844   6.420504  12.430000
 6  -1.232958   6.419454  12.444443
 6  -1.231027  10.698744  12.431168
 6   2.474817   8.562532  12.417761
 6   0.003248   8.561401  12.433367
 6   7.415015  11.411409  12.430163
 6   1.239769   0.714423  12.430342
 6  13.589544   0.714761  12.429792
 6   8.650991   9.273538  12.437082
 6   2.474544   2.851114  12.428925
 6  11.119605   0.714740  12.429158
 6   3.709506   0.713997  12.427316
 6   6.179606   9.274069  12.425272
 6  12.354343   2.853446  12.438364
 6   9.886087   7.133485  12.445975
 6   3.709723   4.991666  12.413916
 6   8.649763   0.714735  12.429524
 6   6.179384   0.714430  12.429237
 6   4.943327   7.135437  12.412403
 6  11.119629   4.993180  12.447228
 6   4.944590  11.411689  12.423902
 6  -4.934860  11.411029  12.430901
 6   0.003504   2.852201  12.437802
 6   7.417721   7.135159  12.439571
 6   4.944453   2.851442  12.427388
 6   9.885092   2.853118  12.438994
 6   8.651680   4.992551  12.444268
 6   6.180118   4.989934  12.431505
 6   7.415477   2.851922  12.436627
 6   2.474479  11.411569  12.422881
 6  -3.700315   9.272420  12.440417
 6   1.238327   4.990347  12.435829
 6  -1.232488   4.992821  12.444146
 6  -2.465820  11.411062  12.430019
 6   3.709501   9.274822  12.416445
 6   0.003954  11.411486  12.428682
 6  -2.466521   7.133491  12.445034
 6   2.475713   7.135409  12.415127
 6   1.239268   9.274122  12.424983
 6  -1.231724   9.273226  12.435156
 6   0.000860   7.135245  12.439315
16   3.884672   6.236998  16.655529
11   1.858187   6.166453  15.116389
11   5.935480   6.213675  15.144399
