CRYSTAL
PRIMVEC
 14.820031   0.000000   0.000000
 -7.410015  12.834505   0.000000
  0.000000   0.000000  16.999976
PRIMCOORD
78 1
 6  14.818050  -0.003028   7.474931
 6   8.643911  10.693056   7.475077
 6   1.232317   2.134156   7.465849
 6  12.347828  -0.002460   7.467704
 6   2.468691  -0.003445   7.465599
 6   6.173492  10.694681   7.469584
 6  13.582254   2.135570   7.472600
 6   9.879617   8.553180   7.468848
 6   2.467892   4.274006   7.438671
 6   9.877895  -0.002580   7.450870
 6   4.939237  -0.003774   7.447039
 6   4.937285   8.556110   7.442780
 6  12.347288   4.274910   7.463953
 6  11.113962   6.413746   7.460007
 6   3.701428   6.414930   7.409930
 6   7.408688  -0.003202   7.440228
 6   7.410143   8.554138   7.465078
 6   3.704851   2.133830   7.439150
 6  11.112913   2.135817   7.461897
 6   8.645723   6.412896   7.451968
 6   4.941058   4.272842   7.408136
 6   8.643788   2.135391   7.439526
 6   6.174613   2.134883   7.424604
 6   6.175429   6.412152   7.428015
 6   9.878787   4.274431   7.450243
 6   3.702244  10.693771   7.447979
 6  -3.705948  10.692249   7.465549
 6  -0.004296   4.274724   7.460475
 6   7.410039   4.273341   7.424554
 6   1.232865  10.692902   7.437673
 6  -2.471208   8.553370   7.456953
 6   1.231331   6.416507   7.428720
 6  -1.237415   6.414768   7.451391
 6  -1.236394  10.692418   7.447722
 6   2.466825   8.555145   7.421410
 6  -0.002502   8.554235   7.434740
 6   7.408901  11.406069   7.475205
 6   1.233346   0.708682   7.470670
 6  13.583121   0.709550   7.473817
 6   8.645295   9.267011   7.472892
 6   2.468660   2.845183   7.451369
 6  11.112850   0.710181   7.461407
 6   3.704291   0.708504   7.451485
 6   6.174598   9.268570   7.462783
 6  12.347465   2.848949   7.468440
 6   9.879632   7.126964   7.461976
 6   3.705446   4.987797   7.412651
 6   8.643326   0.709833   7.443094
 6   6.173963   0.709263   7.436598
 6   4.938272   7.127383   7.422979
 6  11.113051   4.988211   7.458963
 6   4.937963  11.406284   7.462771
 6  -4.940850  11.405164   7.470761
 6  -0.002755   2.848209   7.468688
 6   7.411061   7.126816   7.450100
 6   4.939961   2.847237   7.419319
 6   9.878357   2.848659   7.450257
 6   8.644564   4.987195   7.441003
 6   6.175607   4.985175   7.414056
 6   7.409322   2.847919   7.426346
 6   2.467498  11.406107   7.445042
 6  -3.705803   9.266461   7.466268
 6   1.230466   4.989521   7.445764
 6  -1.238419   4.988768   7.460081
 6  -2.471152  11.405033   7.455296
 6   3.701087   9.268680   7.435718
 6  -0.001842  11.405564   7.442078
 6  -2.471849   7.127695   7.457112
 6   2.466648   7.129153   7.413566
 6   1.232157   9.267411   7.428989
 6  -1.236856   9.266760   7.447040
 6  -0.003537   7.128994   7.437346
16   2.694555   7.435461  11.091774
16   3.749624   7.054382  12.815888
16   4.392784   5.049636  12.810686
16   5.443960   4.677197  11.082308
11   2.817843   4.799446  10.276597
11   5.323597   7.322982  10.290345
