CRYSTAL
PRIMVEC
 14.820031   0.000000   0.000000
 -7.410015  12.834505   0.000000
  0.000000   0.000000  20.000041
PRIMCOORD
76 1
 6  -7.410029  12.834531   0.000000
 6  -1.235008   2.139093   0.000000
 6   6.175025  10.695464   0.000000
 6  -4.940014  12.834531   0.000000
 6   4.940032  12.834531   0.000000
 6   1.235008   2.139093   0.000000
 6  -6.175037  10.695464   0.000000
 6  -2.470015   4.278186   0.000000
 6   4.940016   8.556371   0.000000
 6  -2.469999  12.834531   0.000000
 6   2.470016  12.834531   0.000000
 6   2.470016   4.278186   0.000000
 6  -4.940029   8.556371   0.000000
 6  -3.705023   6.417279   0.000000
 6   3.705009   6.417279   0.000000
 6   0.000016  12.834531   0.000000
 6   0.000000   4.278186   0.000000
 6   3.705009  10.695464   0.000000
 6  -3.705022  10.695464   0.000000
 6  -1.235008   6.417279   0.000000
 6   2.470001   8.556371   0.000000
 6  -1.235007  10.695464   0.000000
 6   1.235009  10.695464   0.000000
 6   1.235009   6.417279   0.000000
 6  -2.470014   8.556371   0.000000
 6   3.705008   2.139093   0.000000
 6  11.115039   2.139093   0.000000
 6   7.410032   8.556371   0.000000
 6   0.000001   8.556371   0.000000
 6   6.175024   2.139093   0.000000
 6   9.880047   4.278186   0.000000
 6   6.175024   6.417279   0.000000
 6   8.645040   6.417279   0.000000
 6   8.645039   2.139093   0.000000
 6   4.940016   4.278186   0.000000
 6   7.410031   4.278186   0.000000
 6   0.000008   1.426058   0.000000
 6   6.175032  12.121523   0.000000
 6  -6.175030  12.121523   0.000000
 6  -1.235000   3.565150   0.000000
 6   4.940024   9.982429   0.000000
 6  -3.705015  12.121523   0.000000
 6   3.705017  12.121523   0.000000
 6   1.235001   3.565150   0.000000
 6  -4.940022   9.982429   0.000000
 6  -2.470007   5.704244   0.000000
 6   3.705017   7.843336   0.000000
 6  -1.235014  12.121523   0.000000
 6   1.235002  12.121523   0.000000
 6   2.470008   5.704244   0.000000
 6  -3.705015   7.843336   0.000000
 6   2.470008   1.426058   0.000000
 6  12.350054   1.426058   0.000000
 6   7.410025   9.982429   0.000000
 6   0.000008   5.704244   0.000000
 6   2.470009   9.982429   0.000000
 6  -2.470007   9.982429   0.000000
 6  -1.235000   7.843336   0.000000
 6   1.235002   7.843336   0.000000
 6  -0.000006   9.982429   0.000000
 6   4.940023   1.426058   0.000000
 6  11.115047   3.565150   0.000000
 6   6.175031   7.843336   0.000000
 6   8.645032   7.843336   0.000000
 6   9.880038   1.426058   0.000000
 6   3.705016   3.565150   0.000000
 6   7.410038   1.426058   0.000000
 6   9.880039   5.704244   0.000000
 6   4.940023   5.704244   0.000000
 6   6.175031   3.565150   0.000000
 6   8.645031   3.565150   0.000000
 6   7.410038   5.704244   0.000000
16   4.206468   6.271864   4.962585
16   2.521629   5.247197   4.429396
11   6.023533   2.925420   4.035456
11   1.964840   9.400425   4.021299
