CRYSTAL
PRIMVEC
 14.820031   0.000000   0.000000
 -7.410015  12.834505   0.000000
  0.000000   0.000000  20.000041
PRIMCOORD
75 1
 6  14.816817  -0.003504   7.387626
 6   8.642809  10.692814   7.383755
 6   1.233709   2.136385   7.374180
 6  12.347723  -0.002997   7.389881
 6   2.467041  -0.003667   7.387441
 6   6.172439  10.692307   7.376650
 6  13.582357   2.135272   7.384999
 6   9.878562   8.553347   7.374854
 6   2.467640   4.274307   7.345150
 6   9.877440  -0.003218   7.389939
 6   4.937485  -0.002803   7.387884
 6   4.937245   8.553799   7.349100
 6  12.346956   4.274578   7.377298
 6  11.112621   6.414393   7.374385
 6   3.701763   6.413449   7.329966
 6   7.407720  -0.002863   7.389050
 6   7.407452   8.552284   7.356063
 6   3.701844   2.136942   7.370781
 6  11.113120   2.135287   7.387964
 6   8.642367   6.414354   7.351572
 6   4.937583   4.274566   7.343912
 6   8.641840   2.135198   7.382353
 6   6.172068   2.135857   7.372748
 6   6.172498   6.414339   7.327763
 6   9.877544   4.275375   7.373131
 6   3.702423  10.692643   7.377534
 6  -3.707921  10.691973   7.389048
 6  -0.000751   4.275317   7.358945
 6   7.407335   4.275054   7.352068
 6   1.233085  10.691950   7.381607
 6  -2.473060   8.552611   7.381248
 6   1.232255   6.414005   7.336663
 6  -1.238512   6.414427   7.364270
 6  -1.237050  10.691979   7.389230
 6   2.467433   8.554108   7.354272
 6  -0.002399   8.553450   7.367223
 6   7.408361  11.405321   7.384562
 6   1.233371   0.709609   7.383882
 6  13.583809   0.709896   7.389245
 6   8.642868   9.266444   7.372821
 6   2.468151   2.848482   7.363939
 6  11.113108   0.710199   7.389874
 6   3.703926   0.708996   7.383793
 6   6.172769   9.266407   7.359545
 6  12.348184   2.849247   7.384818
 6   9.878058   7.127132   7.368065
 6   3.703298   4.988988   7.334866
 6   8.643287   0.710223   7.388862
 6   6.172981   0.709660   7.384261
 6   4.938700   7.127203   7.332343
 6  11.113263   4.987569   7.376154
 6   4.938093  11.404762   7.383115
 6  -4.941855  11.405646   7.389039
 6  -0.002543   2.848672   7.373658
 6   7.407860   7.127962   7.339287
 6   4.938619   2.848774   7.362885
 6   9.878268   2.849082   7.382473
 6   8.643566   4.987527   7.356195
 6   6.172736   4.988142   7.336642
 6   7.408703   2.848799   7.369841
 6   2.468230  11.404863   7.384886
 6  -3.707128   9.266329   7.383970
 6   1.232311   4.987927   7.341492
 6  -1.236863   4.988076   7.365299
 6  -2.471642  11.405578   7.391251
 6   3.703383   9.265354   7.360679
 6  -0.002298  11.405153   7.388987
 6  -2.470944   7.127013   7.375006
 6   2.468879   7.126945   7.336880
 6   1.233516   9.266180   7.367390
 6  -1.236412   9.266929   7.381398
 6  -0.000922   7.127052   7.353971
16   3.962033   6.442877  11.890428
11   0.725828   5.866556  10.616242
11   7.199459   6.118855  10.576246
