CRYSTAL
PRIMVEC
 14.820031   0.000000   0.000000
 -7.410015  12.834505   0.000000
  0.000000   0.000000  20.000041
PRIMCOORD
76 1
 6  14.822540   0.001066   0.071685
 6   8.647797  10.697161   0.072164
 6   1.237498   2.139152   0.068985
 6  12.352749   0.001206   0.074097
 6   2.472644   0.000822   0.069878
 6   6.177676  10.697370   0.063421
 6  13.587434   2.139413   0.081263
 6   9.882835   8.558336   0.086095
 6   2.472198   4.276830   0.059567
 6   9.883091   0.001112   0.080001
 6   4.942436   0.000920   0.074885
 6   4.943157   8.559766   0.052536
 6  12.352552   4.278356   0.096967
 6  11.117542   6.418369   0.099725
 6   3.709048   6.418141   0.051469
 6   7.412770   0.001052   0.081498
 6   7.413307   8.559433   0.068760
 6   3.707178   2.138499   0.061570
 6  11.118066   2.139624   0.089257
 6   8.649108   6.419281   0.089176
 6   4.941268   4.276667   0.060819
 6   8.648757   2.138967   0.089344
 6   6.177660   2.138553   0.075247
 6   6.178460   6.420836   0.068829
 6   9.884011   4.278514   0.098305
 6   3.708038  10.697928   0.063347
 6  -3.702520  10.697021   0.081014
 6   0.001246   4.277322   0.083302
 6   7.415136   4.277447   0.089808
 6   1.237781  10.698092   0.077377
 6  -2.467908   8.558114   0.094509
 6   1.236225   6.417727   0.082773
 6  -1.234160   6.417877   0.098353
 6  -1.232803  10.697420   0.084579
 6   2.473339   8.560891   0.066338
 6   0.001583   8.559259   0.088137
 6   7.412855  11.409788   0.068675
 6   1.237709   0.713633   0.069857
 6  13.587736   0.713854   0.075136
 6   8.648177   9.271528   0.075303
 6   2.472478   2.851323   0.061415
 6  11.118078   0.713884   0.080644
 6   3.707383   0.713349   0.067751
 6   6.177981   9.271833   0.059298
 6  12.352999   2.852610   0.089755
 6   9.883428   7.132506   0.092921
 6   3.706867   4.991261   0.051615
 6   8.648064   0.713366   0.084208
 6   6.177362   0.713226   0.077549
 6   4.942884   7.133973   0.052549
 6  11.118271   4.992379   0.100305
 6   4.942972  11.410264   0.065222
 6  -4.937362  11.409677   0.074345
 6   0.002369   2.851814   0.077224
 6   7.414530   7.133689   0.075967
 6   4.942013   2.850674   0.064072
 6   9.883446   2.852561   0.093527
 6   8.649785   4.992595   0.094793
 6   6.177871   4.991682   0.076304
 6   7.413470   2.850931   0.086117
 6   2.473001  11.410057   0.072772
 6  -3.702569   9.271220   0.088027
 6   1.236758   4.989566   0.075877
 6  -1.233098   4.991544   0.094492
 6  -2.467738  11.409844   0.080643
 6   3.708667   9.272804   0.056860
 6   0.002374  11.409945   0.081551
 6  -2.468160   7.132033   0.099510
 6   2.473702   7.132999   0.066247
 6   1.237454   9.272484   0.077066
 6  -1.233360   9.271603   0.089991
 6   0.000192   7.132668   0.092902
16   4.533008   6.572710   6.735671
16   2.855679   5.362324   6.618133
11   5.240999   3.869480   6.351213
11   2.370165   7.922637   5.502083
