CRYSTAL
PRIMVEC
 14.820031   0.000000   0.000000
 -7.410015  12.834505   0.000000
  0.000000   0.000000  20.000041
PRIMCOORD
78 1
 6  -7.410025  12.834546   1.058354
 6  -1.235003   2.139094   1.058354
 6   6.175023  10.695452   1.058354
 6  -4.940020  12.834546   1.058354
 6   4.940020  12.834546   1.058354
 6   1.235003   2.139094   1.058354
 6  -6.175023  10.695452   1.058354
 6  -2.470005   4.278179   1.058354
 6   4.940020   8.556367   1.058354
 6  -2.470005  12.834546   1.058354
 6   2.470005  12.834546   1.058354
 6   2.470005   4.278179   1.058354
 6  -4.940020   8.556367   1.058354
 6  -3.705018   6.417273   1.058354
 6   3.705018   6.417273   1.058354
 6  -0.000000  12.834546   1.058354
 6   0.000000   4.278179   1.058354
 6   3.705018  10.695452   1.058354
 6  -3.705018  10.695452   1.058354
 6  -1.235003   6.417273   1.058354
 6   2.470005   8.556367   1.058354
 6  -1.235003  10.695452   1.058354
 6   1.235003  10.695452   1.058354
 6   1.235003   6.417273   1.058354
 6  -2.470005   8.556367   1.058354
 6   3.705018   2.139094   1.058354
 6  11.115043   2.139094   1.058354
 6   7.410025   8.556367   1.058354
 6   0.000000   8.556367   1.058354
 6   6.175023   2.139094   1.058354
 6   9.880040   4.278179   1.058354
 6   6.175023   6.417273   1.058354
 6   8.645028   6.417273   1.058354
 6   8.645028   2.139094   1.058354
 6   4.940020   4.278179   1.058354
 6   7.410025   4.278179   1.058354
 6   0.000000   1.426063   1.058354
 6   6.175023  12.121515   1.058354
 6  -6.175023  12.121515   1.058354
 6  -1.235003   3.565147   1.058354
 6   4.940020   9.982420   1.058354
 6  -3.705018  12.121515   1.058354
 6   3.705018  12.121515   1.058354
 6   1.235003   3.565147   1.058354
 6  -4.940020   9.982420   1.058354
 6  -2.470005   5.704242   1.058354
 6   3.705018   7.843336   1.058354
 6  -1.235003  12.121515   1.058354
 6   1.235003  12.121515   1.058354
 6   2.470005   5.704242   1.058354
 6  -3.705018   7.843336   1.058354
 6   2.470005   1.426063   1.058354
 6  12.350045   1.426063   1.058354
 6   7.410025   9.982420   1.058354
 6   0.000000   5.704242   1.058354
 6   2.470005   9.982420   1.058354
 6  -2.470005   9.982420   1.058354
 6  -1.235003   7.843336   1.058354
 6   1.235003   7.843336   1.058354
 6   0.000000   9.982420   1.058354
 6   4.940020   1.426063   1.058354
 6  11.115043   3.565147   1.058354
 6   6.175023   7.843336   1.058354
 6   8.645028   7.843336   1.058354
 6   9.880040   1.426063   1.058354
 6   3.705018   3.565147   1.058354
 6   7.410025   1.426063   1.058354
 6   9.880040   5.704242   1.058354
 6   4.940020   5.704242   1.058354
 6   6.175023   3.565147   1.058354
 6   8.645028   3.565147   1.058354
 6   7.410025   5.704242   1.058354
16   0.662390   9.378529   7.454670
16   0.178412   7.404950   7.679720
16   1.948162   6.308938   8.091031
16   2.988248   7.260468   9.575737
11   3.478101   8.823400   7.210318
11   0.802542   8.967657  10.282515
