CRYSTAL
PRIMVEC
 14.820031   0.000000   0.000000
 -7.410015  12.834505   0.000000
  0.000000   0.000000  20.000041
PRIMCOORD
78 1
 6  14.817881  -0.003296   7.386309
 6   8.643168  10.692039   7.387129
 6   1.232966   2.135799   7.382476
 6  12.347616  -0.003272   7.388442
 6   2.468110  -0.003371   7.385847
 6   6.172825  10.692114   7.385078
 6  13.582764   2.135790   7.387722
 6   9.878172   8.552979   7.388720
 6   2.468000   4.274901   7.375712
 6   9.877756  -0.003336   7.389147
 6   4.938185  -0.003512   7.387313
 6   4.937871   8.552906   7.378804
 6  12.347797   4.274820   7.388261
 6  11.113049   6.413939   7.387712
 6   3.703071   6.413893   7.376002
 6   7.408036  -0.003416   7.387120
 6   7.408020   8.552873   7.383380
 6   3.703041   2.135688   7.381274
 6  11.112762   2.135637   7.390105
 6   8.643020   6.413918   7.384909
 6   4.937924   4.274898   7.378037
 6   8.642968   2.135475   7.387183
 6   6.172990   2.135654   7.383075
 6   6.172776   6.413878   7.377875
 6   9.877953   4.274708   7.387572
 6   3.702624  10.692254   7.385085
 6  -3.706905  10.692022   7.389668
 6  -0.002089   4.274956   7.382251
 6   7.408002   4.274685   7.383034
 6   1.232884  10.692216   7.386066
 6  -2.472042   8.553020   7.388563
 6   1.232913   6.413922   7.379548
 6  -1.237131   6.413954   7.385004
 6  -1.237008  10.692136   7.388836
 6   2.467862   8.553086   7.381309
 6  -0.002201   8.553204   7.384962
 6   7.407949  11.405069   7.385970
 6   1.232963   0.709615   7.384640
 6  13.582687   0.709740   7.387236
 6   8.643055   9.265955   7.386976
 6   2.467996   2.848963   7.378649
 6  11.112676   0.709729   7.389671
 6   3.703224   0.709502   7.384864
 6   6.172868   9.265927   7.381633
 6  12.347749   2.848761   7.388926
 6   9.878035   7.126916   7.387683
 6   3.702810   4.987835   7.374853
 6   8.642816   0.709616   7.388058
 6   6.173043   0.709552   7.385699
 6   4.937956   7.127021   7.375728
 6  11.112807   4.987788   7.387959
 6   4.937743  11.405186   7.385956
 6  -4.941833  11.405040   7.387609
 6  -0.002276   2.848825   7.383756
 6   7.407873   7.126828   7.381432
 6   4.938042   2.848739   7.380031
 6   9.877839   2.848659   7.388354
 6   8.643026   4.987789   7.385007
 6   6.173023   4.987880   7.379227
 6   7.408011   2.848520   7.384001
 6   2.467666  11.405278   7.387105
 6  -3.706971   9.266049   7.389729
 6   1.233109   4.987889   7.377412
 6  -1.237293   4.987811   7.385165
 6  -2.471900  11.405087   7.389242
 6   3.702907   9.266036   7.380813
 6  -0.002164  11.405159   7.387491
 6  -2.472092   7.126990   7.387160
 6   2.467907   7.126960   7.378350
 6   1.232872   9.266124   7.383718
 6  -1.237165   9.266229   7.387672
 6  -0.002114   7.127024   7.382835
16   2.560526   7.555236  11.808891
16   3.817151   7.071512  13.353697
16   4.328211   5.036513  13.345131
16   5.612320   4.572584  11.817115
11   1.329009   3.427972  11.330047
11   6.811194   8.692656  11.343962
