CRYSTAL
PRIMVEC
 17.029504   0.000000   0.000000
  0.000000  17.029504   0.000000
  0.000000   0.000000  20.000041
PRIMCOORD
111 1
28  17.029534   0.000000   5.676512
28   2.838256   0.000000   2.838256
28  17.029534   2.838256   2.838256
28   2.838256   2.838256   5.676512
28  17.029534   5.676512   5.676512
28  17.029534  11.353022   5.676512
28   2.838256  11.353022   2.838256
28   2.838256   5.676512   2.838256
28  17.029534   8.514767   2.838256
28  17.029534  14.191278   2.838256
28   2.838256  14.191278   5.676512
28   2.838256   8.514767   5.676512
28   5.676512   0.000000   5.676512
28  11.353022   0.000000   5.676512
28  11.353022   2.838256   2.838256
28   5.676512   2.838256   2.838256
28   8.514767   2.838256   5.676512
28  14.191278   2.838256   5.676512
28  14.191278   0.000000   2.838256
28   8.514767   0.000000   2.838256
28   5.676512   5.676512   5.676512
28  11.353022  11.353022   5.676512
28  14.191278  11.353022   2.838256
28   8.514767   5.676512   2.838256
28  11.353022   8.514767   2.838256
28   5.676512  14.191278   2.838256
28   8.514767  14.191278   5.676512
28  14.191278   8.514767   5.676512
28   5.676512  11.353022   5.676512
28  11.353022   5.676512   5.676512
28  14.191278   5.676512   2.838256
28   8.514767  11.353022   2.838256
28  11.353022  14.191278   2.838256
28   5.676512   8.514767   2.838256
28   8.514767   8.514767   5.676512
28  14.191278  14.191278   5.676512
16   2.239606   2.239606   2.239611
16  14.789929  14.789929   3.436901
16   0.598650  14.789929   5.077866
16   5.077860   2.239606   0.598645
16  14.789929   5.077860   0.598645
16   2.239606   0.598650   5.077866
16   5.077860   0.598650   3.436901
16   0.598650   5.077860   2.239611
16   2.239606   7.916116   2.239611
16  14.789929   9.113418   3.436901
16   0.598650   9.113418   5.077866
16   5.077860   7.916116   0.598645
16  14.789929  10.754372   0.598645
16   2.239606  11.951673   5.077866
16   5.077860  11.951673   3.436901
16   0.598650  10.754372   2.239611
16   7.916116   2.239611   2.239606
16   9.113418  14.789923   3.436906
16   9.113418   5.077866   0.598650
16   7.916116   0.598645   5.077860
16  10.754372   0.598645   3.436906
16  11.951673   5.077866   2.239606
16  11.951673  14.789923   5.077860
16  10.754372   2.239611   0.598650
16   2.239606  13.592628   2.239611
16  14.789929   3.436906   3.436901
16   0.598650   3.436906   5.077866
16   5.077860  13.592628   0.598645
16  14.789929  16.430883   0.598645
16   2.239606   6.275162   5.077866
16   5.077860   6.275162   3.436901
16   0.598650  16.430883   2.239611
16  13.592628   2.239611   2.239606
16   3.436906  14.789923   3.436906
16   3.436906   5.077866   0.598650
16  13.592628   0.598645   5.077860
16  16.430883   0.598645   3.436906
16   6.275162   5.077866   2.239606
16   6.275162  14.789923   5.077860
16  16.430883   2.239611   0.598650
16   7.916116   7.916116   2.239611
16   9.113418   9.113418   3.436901
16  11.951673   9.113418   5.077866
16  10.754372   7.916116   0.598645
16   9.113418  10.754372   0.598645
16   7.916116  11.951673   5.077866
16  10.754372  11.951673   3.436901
16  11.951673  10.754372   2.239611
16   7.916116  13.592628   2.239611
16   9.113418   3.436906   3.436901
16  11.951673   3.436906   5.077866
16  10.754372  13.592628   0.598645
16   9.113418  16.430883   0.598645
16   7.916116   6.275162   5.077866
16  10.754372   6.275162   3.436901
16  11.951673  16.430883   2.239611
16  13.592628   7.916116   2.239611
16   3.436906   9.113418   3.436901
16   6.275162   9.113418   5.077866
16  16.430883   7.916116   0.598645
16   3.436906  10.754372   0.598645
16  13.592628  11.951673   5.077866
16  16.430883  11.951673   3.436901
16   6.275162  10.754372   2.239611
16  13.592628  13.592628   2.239611
16   3.436906   3.436906   3.436901
16   6.275162   3.436906   5.077866
16  16.430883  13.592628   0.598645
16   3.436906  16.430883   0.598645
16  13.592628   6.275162   5.077866
16  16.430883   6.275162   3.436901
16   6.275162  16.430883   2.239611
16   9.302813   4.961903   6.322834
11   6.972397   4.093887   7.705524
11  11.093412   7.961722   7.335233
