CRYSTAL
PRIMVEC
 14.820031   0.000000   0.000000
 -7.410015  12.834505   0.000000
  0.000000   0.000000  20.000041
PRIMCOORD
82 1
 6  14.822540   0.001066   0.336274
 6   8.647797  10.697161   0.336753
 6   1.237498   2.139152   0.333573
 6  12.352749   0.001206   0.338685
 6   2.472644   0.000822   0.334467
 6   6.177676  10.697370   0.328009
 6  13.587434   2.139413   0.345852
 6   9.882835   8.558336   0.350683
 6   2.472198   4.276830   0.324155
 6   9.883091   0.001112   0.344590
 6   4.942436   0.000920   0.339473
 6   4.943157   8.559766   0.317125
 6  12.352552   4.278356   0.361555
 6  11.117542   6.418369   0.364314
 6   3.709048   6.418141   0.316058
 6   7.412770   0.001052   0.346087
 6   7.413307   8.559433   0.333349
 6   3.707178   2.138499   0.326159
 6  11.118066   2.139624   0.353845
 6   8.649108   6.419281   0.353765
 6   4.941268   4.276667   0.325408
 6   8.648757   2.138967   0.353933
 6   6.177660   2.138553   0.339836
 6   6.178460   6.420836   0.333418
 6   9.884011   4.278514   0.362894
 6   3.708038  10.697928   0.327936
 6  -3.702520  10.697021   0.345603
 6   0.001246   4.277322   0.347891
 6   7.415136   4.277447   0.354397
 6   1.237781  10.698092   0.341965
 6  -2.467908   8.558114   0.359098
 6   1.236225   6.417727   0.347361
 6  -1.234160   6.417877   0.362941
 6  -1.232803  10.697420   0.349167
 6   2.473339   8.560891   0.330926
 6   0.001583   8.559259   0.352725
 6   7.412855  11.409788   0.333264
 6   1.237709   0.713633   0.334445
 6  13.587736   0.713854   0.339725
 6   8.648177   9.271528   0.339892
 6   2.472478   2.851323   0.326003
 6  11.118078   0.713884   0.345232
 6   3.707383   0.713349   0.332340
 6   6.177981   9.271833   0.323887
 6  12.352999   2.852610   0.354344
 6   9.883428   7.132506   0.357510
 6   3.706867   4.991261   0.316204
 6   8.648064   0.713366   0.348797
 6   6.177362   0.713226   0.342138
 6   4.942884   7.133973   0.317138
 6  11.118271   4.992379   0.364894
 6   4.942972  11.410264   0.329810
 6  -4.937362  11.409677   0.338933
 6   0.002369   2.851814   0.341813
 6   7.414530   7.133689   0.340556
 6   4.942013   2.850674   0.328660
 6   9.883446   2.852561   0.358116
 6   8.649785   4.992595   0.359381
 6   7.413470   2.850931   0.350705
 6   2.473001  11.410057   0.337361
 6  -3.702569   9.271220   0.352615
 6   1.236758   4.989566   0.340466
 6  -1.233098   4.991544   0.359080
 6  -2.467738  11.409844   0.345231
 6   3.708667   9.272804   0.321449
 6   0.002374  11.409945   0.346140
 6  -2.468160   7.132033   0.364099
 6   2.473702   7.132999   0.330835
 6   1.237454   9.272484   0.341655
 6  -1.233360   9.271603   0.354580
 6   0.000192   7.132668   0.357491
 7   6.177871   4.991682   0.340893
16   6.224794   2.824202   5.464416
16   4.008244   2.622064   5.567987
16   3.280301   2.515544   3.728852
16   3.004983   6.189970   6.378473
16   2.975838   8.086115   5.687057
16   2.856850   8.198487   3.699558
16   6.628986   3.795557   3.730549
16   6.157616   5.785902   3.821560
11   3.344673   5.348653   3.645099
11   5.945778   6.013029   6.668355
