CRYSTAL
PRIMVEC
 14.820031   0.000000   0.000000
 -7.410015  12.834505   0.000000
  0.000000   0.000000  20.000041
PRIMCOORD
76 1
 6  -7.410025  12.834536   1.058354
 6  -1.235003   2.139094   1.058354
 6   6.175023  10.695462   1.058354
 6  -4.940010  12.834536   1.058354
 6   4.940030  12.834536   1.058354
 6   1.235003   2.139094   1.058354
 6  -6.175033  10.695462   1.058354
 6  -2.470015   4.278189   1.058354
 6   4.940020   8.556367   1.058354
 6  -2.469995  12.834536   1.058354
 6   2.470015  12.834536   1.058354
 6   2.470015   4.278189   1.058354
 6  -4.940030   8.556367   1.058354
 6  -3.705018   6.417283   1.058354
 6   0.000020  12.834536   1.058354
 6   0.000000   4.278189   1.058354
 6   3.705008  10.695462   1.058354
 6  -3.705018  10.695462   1.058354
 6  -1.235003   6.417283   1.058354
 6   2.470005   8.556367   1.058354
 6  -1.235003  10.695462   1.058354
 6   1.235013  10.695462   1.058354
 6   1.235013   6.417283   1.058354
 6  -2.470015   8.556367   1.058354
 6   3.705008   2.139094   1.058354
 6  11.115043   2.139094   1.058354
 6   7.410035   8.556367   1.058354
 6   0.000000   8.556367   1.058354
 6   6.175023   2.139094   1.058354
 6   9.880050   4.278189   1.058354
 6   6.175023   6.417283   1.058354
 6   8.645038   6.417283   1.058354
 6   8.645038   2.139094   1.058354
 6   4.940020   4.278189   1.058354
 6   7.410035   4.278189   1.058354
 6   0.000010   1.426063   1.058354
 6   6.175033  12.121525   1.058354
 6  -6.175033  12.121525   1.058354
 6  -1.235003   3.565147   1.058354
 6   4.940020   9.982430   1.058354
 6  -3.705018  12.121525   1.058354
 6   3.705018  12.121525   1.058354
 6   1.235003   3.565147   1.058354
 6  -4.940020   9.982430   1.058354
 6  -2.470005   5.704242   1.058354
 6   3.705018   7.843336   1.058354
 6  -1.235013  12.121525   1.058354
 6   1.235003  12.121525   1.058354
 6   2.470005   5.704242   1.058354
 6  -3.705018   7.843336   1.058354
 6   2.470005   1.426063   1.058354
 6  12.350055   1.426063   1.058354
 6   7.410025   9.982430   1.058354
 6   0.000010   5.704242   1.058354
 6   2.470005   9.982430   1.058354
 6  -2.470005   9.982430   1.058354
 6  -1.235003   7.843336   1.058354
 6   1.235003   7.843336   1.058354
 6  -0.000010   9.982430   1.058354
 6   4.940020   1.426063   1.058354
 6  11.115043   3.565147   1.058354
 6   6.175033   7.843336   1.058354
 6   8.645028   7.843336   1.058354
 6   9.880040   1.426063   1.058354
 6   3.705018   3.565147   1.058354
 6   7.410035   1.426063   1.058354
 6   9.880040   5.704242   1.058354
 6   4.940020   5.704242   1.058354
 6   6.175033   3.565147   1.058354
 6   8.645028   3.565147   1.058354
 6   7.410035   5.704242   1.058354
 7   3.705008   6.417283   1.058354
16   4.876745   6.232944   4.686209
16   4.195019   8.191085   4.946102
11   2.349479   6.600206   3.823041
11   6.622291   8.085011   3.770409
