CRYSTAL
PRIMVEC
 14.820031   0.000000   0.000000
 -7.410015  12.834505   0.000000
  0.000000   0.000000  20.000041
PRIMCOORD
75 1
 6   0.000000   0.000000   1.587533
 6  -1.235013   2.139094   1.587533
 6   6.175043  10.695492   1.587533
 6   2.470025   0.000000   1.587533
 6  12.350085   0.000000   1.587533
 6   1.235013   2.139094   1.587533
 6  -6.175053  10.695492   1.587533
 6  -2.470025   4.278199   1.587533
 6   4.940030   8.556387   1.587533
 6   4.940040   0.000000   1.587533
 6   9.880070   0.000000   1.587533
 6   2.470025   4.278199   1.587533
 6  -4.940040   8.556387   1.587533
 6  -3.705028   6.417293   1.587533
 6   7.410065   0.000000   1.587533
 6   0.000000   4.278199   1.587533
 6   3.705018  10.695492   1.587533
 6  -3.705028  10.695492   1.587533
 6  -1.235013   6.417293   1.587533
 6   2.470005   8.556387   1.587533
 6  -1.235013  10.695492   1.587533
 6   1.235013  10.695492   1.587533
 6   1.235013   6.417293   1.587533
 6  -2.470015   8.556387   1.587533
 6   3.705018   2.139094   1.587533
 6  11.115063   2.139094   1.587533
 6   7.410045   8.556387   1.587533
 6   0.000000   8.556387   1.587533
 6   6.175033   2.139094   1.587533
 6   9.880070   4.278199   1.587533
 6   6.175033   6.417293   1.587533
 6   8.645058   6.417293   1.587533
 6   8.645058   2.139094   1.587533
 6   4.940030   4.278199   1.587533
 6   7.410045   4.278199   1.587533
 6   0.000010   1.426063   1.587533
 6   6.175043  12.121545   1.587533
 6  -6.175043  12.121545   1.587533
 6  -1.235003   3.565157   1.587533
 6   4.940040   9.982450   1.587533
 6  -3.705018  12.121545   1.587533
 6   3.705028  12.121545   1.587533
 6   1.235003   3.565157   1.587533
 6  -4.940030   9.982450   1.587533
 6  -2.470015   5.704252   1.587533
 6   3.705028   7.843356   1.587533
 6  -1.235013  12.121545   1.587533
 6   1.235003  12.121545   1.587533
 6   2.470015   5.704252   1.587533
 6  -3.705018   7.843356   1.587533
 6   2.470015   1.426063   1.587533
 6  12.350075   1.426063   1.587533
 6   7.410045   9.982450   1.587533
 6   0.000010   5.704252   1.587533
 6   2.470015   9.982450   1.587533
 6  -2.470015   9.982450   1.587533
 6  -1.235003   7.843356   1.587533
 6   1.235003   7.843356   1.587533
 6  -0.000010   9.982450   1.587533
 6   4.940030   1.426063   1.587533
 6  11.115073   3.565157   1.587533
 6   6.175043   7.843356   1.587533
 6   8.645048   7.843356   1.587533
 6   9.880060   1.426063   1.587533
 6   3.705028   3.565157   1.587533
 6   7.410055   1.426063   1.587533
 6   9.880060   5.704252   1.587533
 6   4.940030   5.704252   1.587533
 6   6.175043   3.565157   1.587533
 6   8.645048   3.565157   1.587533
 6   7.410055   5.704252   1.587533
 7   3.705018   6.417293   1.587533
16   3.540058   6.226526   5.702817
11  -0.150038   5.430604   5.024927
11   7.282475   5.793854   5.026329
