CRYSTAL
PRIMVEC
 14.820031   0.000000   0.000000
 -7.410015  12.834505   0.000000
  0.000000   0.000000  20.000041
PRIMCOORD
79 1
 6   0.000000   0.000000   0.529181
 6  -1.235013   2.139094   0.529181
 6   6.175033  10.695482   0.529181
 6   2.470035   0.000000   0.529181
 6  12.350095   0.000000   0.529181
 6   1.235003   2.139094   0.529181
 6  -6.175053  10.695482   0.529181
 6  -2.470025   4.278199   0.529181
 6   4.940030   8.556387   0.529181
 6   4.940040   0.000000   0.529181
 6   9.880070   0.000000   0.529181
 6  -4.940040   8.556387   0.529181
 6  -3.705028   6.417283   0.529181
 6   7.410065   0.000000   0.529181
 6   0.000000   4.278199   0.529181
 6   3.705028  10.695482   0.529181
 6  -3.705028  10.695482   0.529181
 6  -1.235003   6.417283   0.529181
 6   2.470025   8.556387   0.529181
 6  -1.235003  10.695482   0.529181
 6   1.235003  10.695482   0.529181
 6  -2.470015   8.556387   0.529181
 6   3.705028   2.139094   0.529181
 6  11.115063   2.139094   0.529181
 6   7.410045   8.556387   0.529181
 6   0.000000   8.556387   0.529181
 6   6.175033   2.139094   0.529181
 6   9.880060   4.278199   0.529181
 6   6.175033   6.417283   0.529181
 6   8.645058   6.417283   0.529181
 6   8.645058   2.139094   0.529181
 6   4.940030   4.278199   0.529181
 6   7.410045   4.278199   0.529181
 6   0.000000   1.426063   0.529181
 6   6.175033  12.121545   0.529181
 6  -6.175033  12.121545   0.529181
 6  -1.235003   3.565157   0.529181
 6   4.940030   9.982450   0.529181
 6  -3.705028  12.121545   0.529181
 6   3.705028  12.121545   0.529181
 6   1.235003   3.565157   0.529181
 6  -4.940030   9.982450   0.529181
 6  -2.470025   5.704252   0.529181
 6  -1.235003  12.121545   0.529181
 6   1.235003  12.121545   0.529181
 6  -3.705028   7.843356   0.529181
 6   2.470025   1.426063   0.529181
 6  12.350075   1.426063   0.529181
 6   7.410055   9.982450   0.529181
 6   0.000000   5.704252   0.529181
 6   2.470025   9.982450   0.529181
 6  -2.470005   9.982450   0.529181
 6  -1.235003   7.843356   0.529181
 6   1.235003   7.843356   0.529181
 6  -0.000000   9.982450   0.529181
 6   4.940030   1.426063   0.529181
 6  11.115063   3.565157   0.529181
 6   6.175033   7.843356   0.529181
 6   8.645058   7.843356   0.529181
 6   9.880060   1.426063   0.529181
 6   3.705028   3.565157   0.529181
 6   7.410045   1.426063   0.529181
 6   9.880060   5.704252   0.529181
 6   6.175033   3.565157   0.529181
 6   8.645058   3.565157   0.529181
 6   7.410045   5.704252   0.529181
 7   2.470025   4.278199   0.529181
 7   1.235003   6.417283   0.529181
 7   3.705028   7.843356   0.529181
 7   4.940030   5.704252   0.529181
26   3.088866   6.061362   0.529181
16   6.579621   7.291018   7.310739
16   4.833754   7.860766   8.111103
16   3.839666   6.321577   8.911005
16   2.570548   6.083586   5.905836
16   3.149540   8.000994   5.827367
16   1.731825   9.237333   6.522738
11   5.165309   4.877663   6.605636
11   1.052387   7.023470   8.193880
