CRYSTAL
PRIMVEC
 14.820031   0.000000   0.000000
 -7.410015  12.834505   0.000000
  0.000000   0.000000  16.999976
PRIMCOORD
75 1
 6   0.000000   0.000000   0.529178
 6  -1.235011   2.139098   0.529178
 6   6.175037  10.695484   0.529178
 6   2.470030   0.000000   0.529178
 6  12.350090   0.000000   0.529178
 6   1.235006   2.139098   0.529178
 6  -6.175049  10.695484   0.529178
 6  -2.470022   4.278198   0.529178
 6   4.940031   8.556384   0.529178
 6   4.940040   0.000000   0.529178
 6   9.880070   0.000000   0.529178
 6  -4.940037   8.556384   0.529178
 6  -3.705027   6.417286   0.529178
 6   7.410060   0.000000   0.529178
 6   0.000000   4.278198   0.529178
 6   3.705027  10.695484   0.529178
 6  -3.705025  10.695484   0.529178
 6  -1.235006   6.417286   0.529178
 6   2.470021   8.556384   0.529178
 6  -1.235005  10.695484   0.529178
 6   1.235007  10.695484   0.529178
 6  -2.470019   8.556384   0.529178
 6   3.705026   2.139098   0.529178
 6  11.115066   2.139098   0.529178
 6   7.410041   8.556384   0.529178
 6   0.000001   8.556384   0.529178
 6   6.175036   2.139098   0.529178
 6   9.880061   4.278198   0.529178
 6   6.175036   6.417286   0.529178
 6   8.645056   6.417286   0.529178
 6   8.645057   2.139098   0.529178
 6   4.940030   4.278198   0.529178
 6   7.410041   4.278198   0.529178
 6   0.000000   1.426066   0.529178
 6   6.175037  12.121540   0.529178
 6  -6.175035  12.121540   0.529178
 6  -1.235006   3.565154   0.529178
 6   4.940031   9.982450   0.529178
 6  -3.705025  12.121540   0.529178
 6   3.705027  12.121540   0.529178
 6   1.235006   3.565154   0.529178
 6  -4.940029   9.982450   0.529178
 6  -2.470020   5.704254   0.529178
 6  -1.235005  12.121540   0.529178
 6   1.235007  12.121540   0.529178
 6  -3.705026   7.843352   0.529178
 6   2.470020   1.426066   0.529178
 6  12.350080   1.426066   0.529178
 6   7.410051   9.982450   0.529178
 6   0.000000   5.704254   0.529178
 6   2.470021   9.982450   0.529178
 6  -2.470009   9.982450   0.529178
 6  -1.235006   7.843352   0.529178
 6   1.235007   7.843352   0.529178
 6   0.000001   9.982450   0.529178
 6   4.940030   1.426066   0.529178
 6  11.115066   3.565154   0.529178
 6   6.175036   7.843352   0.529178
 6   8.645057   7.843352   0.529178
 6   9.880061   1.426066   0.529178
 6   3.705026   3.565154   0.529178
 6   7.410040   1.426066   0.529178
 6   9.880060   5.704254   0.529178
 6   6.175036   3.565154   0.529178
 6   8.645056   3.565154   0.529178
 6   7.410040   5.704254   0.529178
 7   2.470020   4.278198   0.529178
 7   1.235006   6.417286   0.529178
 7   3.705027   7.843352   0.529178
 7   4.940031   5.704254   0.529178
26   3.088865   6.061359   0.529178
16   4.280582   4.864088   3.825533
16   2.964391   6.120657   2.823853
11   5.265184   7.423676   3.963768
11   1.813438   3.678644   3.740722
