CRYSTAL
PRIMVEC
 14.820031   0.000000   0.000000
 -7.410015  12.834505   0.000000
  0.000000   0.000000  20.000041
PRIMCOORD
81 1
 6   0.000000   0.000000   0.529181
 6  -1.235013   2.139094   0.529181
 6   6.175033  10.695482   0.529181
 6   2.470035   0.000000   0.529181
 6  12.350095   0.000000   0.529181
 6   1.235003   2.139094   0.529181
 6  -6.175053  10.695482   0.529181
 6  -2.470025   4.278199   0.529181
 6   4.940030   8.556387   0.529181
 6   4.940040   0.000000   0.529181
 6   9.880070   0.000000   0.529181
 6  -4.940040   8.556387   0.529181
 6  -3.705028   6.417283   0.529181
 6   7.410065   0.000000   0.529181
 6   0.000000   4.278199   0.529181
 6   3.705028  10.695482   0.529181
 6  -3.705028  10.695482   0.529181
 6  -1.235003   6.417283   0.529181
 6   2.470025   8.556387   0.529181
 6  -1.235003  10.695482   0.529181
 6   1.235003  10.695482   0.529181
 6  -2.470015   8.556387   0.529181
 6   3.705028   2.139094   0.529181
 6  11.115063   2.139094   0.529181
 6   7.410045   8.556387   0.529181
 6   0.000000   8.556387   0.529181
 6   6.175033   2.139094   0.529181
 6   9.880060   4.278199   0.529181
 6   6.175033   6.417283   0.529181
 6   8.645058   6.417283   0.529181
 6   8.645058   2.139094   0.529181
 6   4.940030   4.278199   0.529181
 6   7.410045   4.278199   0.529181
 6   0.000000   1.426063   0.529181
 6   6.175033  12.121545   0.529181
 6  -6.175033  12.121545   0.529181
 6  -1.235003   3.565157   0.529181
 6   4.940030   9.982450   0.529181
 6  -3.705028  12.121545   0.529181
 6   3.705028  12.121545   0.529181
 6   1.235003   3.565157   0.529181
 6  -4.940030   9.982450   0.529181
 6  -2.470025   5.704252   0.529181
 6  -1.235003  12.121545   0.529181
 6   1.235003  12.121545   0.529181
 6  -3.705028   7.843356   0.529181
 6   2.470025   1.426063   0.529181
 6  12.350075   1.426063   0.529181
 6   7.410055   9.982450   0.529181
 6   0.000000   5.704252   0.529181
 6   2.470025   9.982450   0.529181
 6  -2.470005   9.982450   0.529181
 6  -1.235003   7.843356   0.529181
 6   1.235003   7.843356   0.529181
 6  -0.000000   9.982450   0.529181
 6   4.940030   1.426063   0.529181
 6  11.115063   3.565157   0.529181
 6   6.175033   7.843356   0.529181
 6   8.645058   7.843356   0.529181
 6   9.880060   1.426063   0.529181
 6   3.705028   3.565157   0.529181
 6   7.410045   1.426063   0.529181
 6   9.880060   5.704252   0.529181
 6   6.175033   3.565157   0.529181
 6   8.645058   3.565157   0.529181
 6   7.410045   5.704252   0.529181
 7   2.470025   4.278199   0.529181
 7   1.235003   6.417283   0.529181
 7   3.705028   7.843356   0.529181
 7   4.940030   5.704252   0.529181
26   3.088866   6.061362   0.529181
16   2.342556   7.613018   6.740865
16   0.756278   7.916094   5.440944
16   0.047082   6.107588   4.808282
16   2.598846   2.993780   4.944732
16   4.604859   3.202727   4.636309
16   5.430053   4.746128   5.687813
16   4.215706   7.975285   5.849248
16   4.829349   6.498799   4.563862
11   1.164573   4.480508   6.962793
11   2.239330   5.246487   3.330809
