CRYSTAL
PRIMVEC
 14.820031   0.000000   0.000000
 -7.410015  12.834505   0.000000
  0.000000   0.000000  20.000041
PRIMCOORD
79 1
 6   0.000000   0.000000   0.529181
 6  -1.235013   2.139094   0.529181
 6   6.175033  10.695482   0.529181
 6   2.470035   0.000000   0.529181
 6  12.350095   0.000000   0.529181
 6   1.235003   2.139094   0.529181
 6  -6.175053  10.695482   0.529181
 6  -2.470025   4.278199   0.529181
 6   4.940030   8.556387   0.529181
 6   4.940040   0.000000   0.529181
 6   9.880070   0.000000   0.529181
 6  -4.940040   8.556387   0.529181
 6  -3.705028   6.417283   0.529181
 6   7.410065   0.000000   0.529181
 6   0.000000   4.278199   0.529181
 6   3.705028  10.695482   0.529181
 6  -3.705028  10.695482   0.529181
 6  -1.235003   6.417283   0.529181
 6   2.470025   8.556387   0.529181
 6  -1.235003  10.695482   0.529181
 6   1.235003  10.695482   0.529181
 6  -2.470015   8.556387   0.529181
 6   3.705028   2.139094   0.529181
 6  11.115063   2.139094   0.529181
 6   7.410045   8.556387   0.529181
 6   0.000000   8.556387   0.529181
 6   6.175033   2.139094   0.529181
 6   9.880060   4.278199   0.529181
 6   6.175033   6.417283   0.529181
 6   8.645058   6.417283   0.529181
 6   8.645058   2.139094   0.529181
 6   4.940030   4.278199   0.529181
 6   7.410045   4.278199   0.529181
 6   0.000000   1.426063   0.529181
 6   6.175033  12.121545   0.529181
 6  -6.175033  12.121545   0.529181
 6  -1.235003   3.565157   0.529181
 6   4.940030   9.982450   0.529181
 6  -3.705028  12.121545   0.529181
 6   3.705028  12.121545   0.529181
 6   1.235003   3.565157   0.529181
 6  -4.940030   9.982450   0.529181
 6  -2.470025   5.704252   0.529181
 6  -1.235003  12.121545   0.529181
 6   1.235003  12.121545   0.529181
 6  -3.705028   7.843356   0.529181
 6   2.470025   1.426063   0.529181
 6  12.350075   1.426063   0.529181
 6   7.410055   9.982450   0.529181
 6   0.000000   5.704252   0.529181
 6   2.470025   9.982450   0.529181
 6  -2.470005   9.982450   0.529181
 6  -1.235003   7.843356   0.529181
 6   1.235003   7.843356   0.529181
 6  -0.000000   9.982450   0.529181
 6   4.940030   1.426063   0.529181
 6  11.115063   3.565157   0.529181
 6   6.175033   7.843356   0.529181
 6   8.645058   7.843356   0.529181
 6   9.880060   1.426063   0.529181
 6   3.705028   3.565157   0.529181
 6   7.410045   1.426063   0.529181
 6   9.880060   5.704252   0.529181
 6   6.175033   3.565157   0.529181
 6   8.645058   3.565157   0.529181
 6   7.410045   5.704252   0.529181
 7   2.470025   4.278199   0.529181
 7   1.235003   6.417283   0.529181
 7   3.705028   7.843356   0.529181
 7   4.940030   5.704252   0.529181
26   3.088866   6.061362   0.529181
16   0.475834   5.728399   6.169655
16   2.012536   6.949546   5.826656
16   2.119711   7.480982   3.889195
16   4.070294   4.573103   3.861015
16   4.189841   5.070417   5.807675
16   5.731616   6.282615   6.160886
11   1.223765   4.752127   3.544745
11   4.958275   7.314024   3.563826
