CRYSTAL
PRIMVEC
 13.779774   0.000000   0.000000
  0.000000  13.779774   0.000000
  0.000000   0.000000  20.000041
PRIMCOORD
64 1
22   0.000000  -0.000000   1.058354
22   2.296865   2.296865   2.537417
22   0.000000   4.593739   1.058354
22   2.296865   6.890604   2.537417
22   0.000000   9.187479   1.058354
22   2.296865  11.484343   2.537417
22   4.593739  -0.000000   1.058354
22   6.890604   2.296865   2.537417
22   4.593739   4.593739   1.058354
22   6.890604   6.890604   2.537417
22   4.593739   9.187479   1.058354
22   6.890609  11.484343   2.537417
22   9.187479  -0.000000   1.058354
22  11.484343   2.296865   2.537417
22   9.187479   4.593739   1.058354
22  11.484343   6.890609   2.537417
22   9.187479   9.187479   1.058354
22  11.484343  11.484343   2.537417
 8   1.402473   1.402473   1.058354
 8   3.191267   3.191266   1.058354
 8   0.894402   3.699337   2.537417
 8   3.699338   0.894402   2.537417
 8   1.402473   5.996212   1.058354
 8   3.191267   7.785006   1.058354
 8   0.894402   8.293077   2.537417
 8   3.699338   5.488141   2.537417
 8   1.402473  10.589951   1.058354
 8   3.191267  12.378745   1.058354
 8   0.894402  12.886816   2.537417
 8   3.699338  10.081880   2.537417
 8   5.996212   1.402473   1.058354
 8   7.785006   3.191266   1.058354
 8   5.488141   3.699337   2.537417
 8   8.293077   0.894402   2.537417
 8   5.996212   5.996212   1.058354
 8   7.785006   7.785006   1.058354
 8   5.488141   8.293077   2.537417
 8   8.293077   5.488141   2.537417
 8   5.996212  10.589951   1.058354
 8   7.785006  12.378745   1.058354
 8   5.488141  12.886816   2.537417
 8   8.293077  10.081880   2.537417
 8  10.589952   1.402473   1.058354
 8  12.378745   3.191266   1.058354
 8  10.081881   3.699337   2.537417
 8  12.886816   0.894402   2.537417
 8  10.589952   5.996212   1.058354
 8  12.378745   7.785006   1.058354
 8  10.081881   8.293077   2.537417
 8  12.886816   5.488141   2.537417
 8  10.589952  10.589951   1.058354
 8  12.378745  12.378745   1.058354
 8  10.081881  12.886816   2.537417
 8  12.886816  10.081880   2.537417
16   7.164265   2.955187   5.014179
16  11.593406   6.350863   5.002671
16  10.085075   7.086950   6.117068
16  10.868501  11.351685   5.032248
16   9.225593  12.590389   5.036828
16   7.469231  11.588203   5.108080
16   5.860079   4.526835   5.251360
16   6.682357   6.380592   5.088027
11   9.187679   9.210594   4.462682
11   9.205493   4.768201   4.459372
