CRYSTAL
PRIMVEC
 13.779774   0.000000   0.000000
  0.000000  13.779774   0.000000
  0.000000   0.000000  20.000041
PRIMCOORD
99 1
22   0.000000   0.000000   1.058354
22   2.296865   2.296865   2.537417
22   0.000000   4.593739   1.058354
22   2.296865   6.890604   2.537417
22   0.000000   9.187479   1.058354
22   2.296865  11.484343   2.537417
22   0.000000  13.781218   1.058354
22   2.296875  16.078083   2.537417
22   4.593739   0.000000   1.058354
22   6.890604   2.296865   2.537417
22   4.593739   4.593739   1.058354
22   6.890604   6.890604   2.537417
22   4.593739   9.187479   1.058354
22   6.890614  11.484343   2.537417
22   4.593739  13.781218   1.058354
22   6.890614  16.078083   2.537417
22   9.187479   0.000000   1.058354
22  11.484343   2.296865   2.537417
22   9.187479   4.593739   1.058354
22  11.484343   6.890604   2.537417
22   9.187479   9.187479   1.058354
22  11.484343  11.484343   2.537417
22   9.187479  13.781218   1.058354
22  11.484343  16.078083   2.537417
22  13.781218   0.000000   1.058354
22  16.078083   2.296865   2.537417
22  13.781218   4.593739   1.058354
22  16.078083   6.890604   2.537417
22  13.781218   9.187479   1.058354
22  16.078083  11.484343   2.537417
22  13.781218  13.781218   1.058354
22  16.078083  16.078083   2.537417
 8   1.402473   1.402473   1.058354
 8   3.191266   3.191266   1.058354
 8   0.894402   3.699338   2.537417
 8   3.699338   0.894402   2.537417
 8   1.402473   5.996212   1.058354
 8   3.191266   7.785006   1.058354
 8   0.894402   8.293077   2.537417
 8   3.699338   5.488141   2.537417
 8   1.402473  10.589951   1.058354
 8   3.191266  12.378745   1.058354
 8   0.894402  12.886816   2.537417
 8   3.699338  10.081880   2.537417
 8   1.402473  15.183691   1.058354
 8   3.191266  16.972484   1.058354
 8   0.894402  17.480555   2.537417
 8   3.699338  14.675620   2.537417
 8   5.996212   1.402473   1.058354
 8   7.785006   3.191266   1.058354
 8   5.488141   3.699338   2.537417
 8   8.293077   0.894402   2.537417
 8   5.996212   5.996212   1.058354
 8   7.785006   7.785006   1.058354
 8   5.488141   8.293077   2.537417
 8   8.293077   5.488141   2.537417
 8   5.996212  10.589951   1.058354
 8   7.785006  12.378745   1.058354
 8   5.488141  12.886816   2.537417
 8   8.293077  10.081880   2.537417
 8   5.996212  15.183691   1.058354
 8   7.785006  16.972484   1.058354
 8   5.488141  17.480555   2.537417
 8   8.293077  14.675620   2.537417
 8  10.589951   1.402473   1.058354
 8  12.378745   3.191266   1.058354
 8  10.081880   3.699338   2.537417
 8  12.886816   0.894402   2.537417
 8  10.589951   5.996212   1.058354
 8  12.378745   7.785006   1.058354
 8  10.081880   8.293077   2.537417
 8  12.886816   5.488141   2.537417
 8  10.589951  10.589951   1.058354
 8  12.378745  12.378745   1.058354
 8  10.081880  12.886816   2.537417
 8  12.886816  10.081880   2.537417
 8  10.589951  15.183691   1.058354
 8  12.378745  16.972484   1.058354
 8  10.081880  17.480555   2.537417
 8  12.886816  14.675620   2.537417
 8  15.183691   1.402473   1.058354
 8  16.972484   3.191266   1.058354
 8  14.675620   3.699338   2.537417
 8  17.480555   0.894402   2.537417
 8  15.183691   5.996212   1.058354
 8  16.972484   7.785006   1.058354
 8  14.675620   8.293077   2.537417
 8  17.480555   5.488141   2.537417
 8  15.183691  10.589951   1.058354
 8  16.972484  12.378745   1.058354
 8  14.675620  12.886816   2.537417
 8  17.480555  10.081880   2.537417
 8  15.183691  15.183691   1.058354
 8  16.972484  16.972484   1.058354
 8  14.675620  17.480555   2.537417
 8  17.480555  14.675620   2.537417
16   8.996738   9.104738   6.107715
11   7.470775  10.380251   4.681962
11  10.440171   7.512485   4.937202
