CRYSTAL
PRIMVEC
 13.779774   0.000000   0.000000
  0.000000  13.779774   0.000000
  0.000000   0.000000  20.000041
PRIMCOORD
62 1
22   0.000000  -0.000000   1.058354
22   2.296865   2.296865   2.537417
22   0.000000   4.593739   1.058354
22   2.296865   6.890604   2.537417
22   0.000000   9.187479   1.058354
22   2.296865  11.484343   2.537417
22   4.593739  -0.000000   1.058354
22   6.890604   2.296865   2.537417
22   4.593739   4.593739   1.058354
22   6.890604   6.890604   2.537417
22   4.593739   9.187479   1.058354
22   6.890609  11.484343   2.537417
22   9.187479  -0.000000   1.058354
22  11.484343   2.296865   2.537417
22   9.187479   4.593739   1.058354
22  11.484343   6.890609   2.537417
22   9.187479   9.187479   1.058354
22  11.484343  11.484343   2.537417
 8   1.402473   1.402473   1.058354
 8   3.191267   3.191266   1.058354
 8   0.894402   3.699337   2.537417
 8   3.699338   0.894402   2.537417
 8   1.402473   5.996212   1.058354
 8   3.191267   7.785006   1.058354
 8   0.894402   8.293077   2.537417
 8   3.699338   5.488141   2.537417
 8   1.402473  10.589951   1.058354
 8   3.191267  12.378745   1.058354
 8   0.894402  12.886816   2.537417
 8   3.699338  10.081880   2.537417
 8   5.996212   1.402473   1.058354
 8   7.785006   3.191266   1.058354
 8   5.488141   3.699337   2.537417
 8   8.293077   0.894402   2.537417
 8   5.996212   5.996212   1.058354
 8   7.785006   7.785006   1.058354
 8   5.488141   8.293077   2.537417
 8   8.293077   5.488141   2.537417
 8   5.996212  10.589951   1.058354
 8   7.785006  12.378745   1.058354
 8   5.488141  12.886816   2.537417
 8   8.293077  10.081880   2.537417
 8  10.589952   1.402473   1.058354
 8  12.378745   3.191266   1.058354
 8  10.081881   3.699337   2.537417
 8  12.886816   0.894402   2.537417
 8  10.589952   5.996212   1.058354
 8  12.378745   7.785006   1.058354
 8  10.081881   8.293077   2.537417
 8  12.886816   5.488141   2.537417
 8  10.589952  10.589951   1.058354
 8  12.378745  12.378745   1.058354
 8  10.081881  12.886816   2.537417
 8  12.886816  10.081880   2.537417
16   7.481756  11.711068   5.102642
16   9.285913  12.642131   5.157285
16  10.907096  11.375073   5.041991
16   7.461072   6.872330   5.167195
16   9.380108   7.158855   5.970709
16  11.050609   6.339499   5.027699
11   9.136482   9.343192   4.415732
11   9.103750   4.612353   4.382574
