CRYSTAL
PRIMVEC
 17.029504   0.000000   0.000000
  0.000000  17.029504   0.000000
  0.000000   0.000000  23.283797
PRIMCOORD
116 1
28  17.029521  -0.000015   0.323501
28   2.838266  -0.000015   3.161756
28  17.029521  -2.838265   3.161756
28   2.838266  -2.838265   0.323501
28  17.029521  -5.676515   0.323501
28  17.029521 -11.353014   0.323501
28   2.838266 -11.353014   3.161756
28   2.838266  -5.676515   3.161756
28  17.029521  -8.514764   3.161756
28  17.029521 -14.191264   3.161756
28   2.838266 -14.191264   0.323501
28   2.838266  -8.514764   0.323501
28   5.676522  -0.000015   0.323501
28  11.353021  -0.000015   0.323501
28  11.353021  -2.838265   3.161756
28   5.676522  -2.838265   3.161756
28   8.514765  -2.838265   0.323501
28  14.191265  -2.838265   0.323501
28  14.191265  -0.000015   3.161756
28   8.514765  -0.000015   3.161756
28   5.676522  -5.676515   0.323501
28  11.353021 -11.353014   0.323501
28  14.191265 -11.353014   3.161756
28   8.514765  -5.676515   3.161756
28  11.353021  -8.514764   3.161756
28   5.676522 -14.191264   3.161756
28   8.514765 -14.191264   0.323501
28  14.191265  -8.514764   0.323501
28   5.676522 -11.353014   0.323501
28  11.353021  -5.676515   0.323501
28  14.191265  -5.676515   3.161756
28   8.514765 -11.353014   3.161756
28  11.353021 -14.191264   3.161756
28   5.676522  -8.514764   3.161756
28   8.514765  -8.514764   0.323501
28  14.191265 -14.191264   0.323501
16   2.239621  -2.239622   3.760400
16  14.789916 -14.789913   2.563113
16   0.598667 -14.789913   0.922144
16   5.077870  -2.239622   5.401369
16  14.789916  -5.077872   5.401369
16   2.239621  -0.598664   0.922144
16   5.077870  -0.598664   2.563113
16   0.598667  -5.077872   3.760400
16   2.239621  -7.916121   3.760400
16  14.789916  -9.113413   2.563113
16   0.598667  -9.113413   0.922144
16   5.077870  -7.916121   5.401369
16  14.789916 -10.754371   5.401369
16   2.239621 -11.951663   0.922144
16   5.077870 -11.951663   2.563113
16   0.598667 -10.754371   3.760400
16   7.916120  -2.239622   3.760400
16   9.113416 -14.789913   2.563113
16   9.113416  -5.077872   5.401369
16   7.916120  -0.598664   0.922144
16  10.754370  -0.598664   2.563113
16  11.951666  -5.077872   3.760400
16  11.951666 -14.789913   0.922144
16  10.754370  -2.239622   5.401369
16   2.239621 -13.592621   3.760400
16  14.789916  -3.436914   2.563113
16   0.598667  -3.436914   0.922144
16   5.077870 -13.592621   5.401369
16  14.789916 -16.430871   5.401369
16   2.239621  -6.275164   0.922144
16   5.077870  -6.275164   2.563113
16   0.598667 -16.430871   3.760400
16  13.592620  -2.239622   3.760400
16   3.436917 -14.789913   2.563113
16   3.436917  -5.077872   5.401369
16  13.592620  -0.598664   0.922144
16  16.430869  -0.598664   2.563113
16   6.275167  -5.077872   3.760400
16   6.275167 -14.789913   0.922144
16  16.430869  -2.239622   5.401369
16   7.916120  -7.916121   3.760400
16   9.113416  -9.113413   2.563113
16  11.951666  -9.113413   0.922144
16  10.754370  -7.916121   5.401369
16   9.113416 -10.754371   5.401369
16   7.916120 -11.951663   0.922144
16  10.754370 -11.951663   2.563113
16  11.951666 -10.754371   3.760400
16   7.916120 -13.592621   3.760400
16   9.113416  -3.436914   2.563113
16  11.951666  -3.436914   0.922144
16  10.754370 -13.592621   5.401369
16   9.113416 -16.430871   5.401369
16   7.916120  -6.275164   0.922144
16  10.754370  -6.275164   2.563113
16  11.951666 -16.430871   3.760400
16  13.592620  -7.916121   3.760400
16   3.436917  -9.113413   2.563113
16   6.275167  -9.113413   0.922144
16  16.430869  -7.916121   5.401369
16   3.436917 -10.754371   5.401369
16  13.592620 -11.951663   0.922144
16  16.430869 -11.951663   2.563113
16   6.275167 -10.754371   3.760400
16  13.592620 -13.592621   3.760400
16   3.436917  -3.436914   2.563113
16   6.275167  -3.436914   0.922144
16  16.430869 -13.592621   5.401369
16   3.436917 -16.430871   5.401369
16  13.592620  -6.275164   0.922144
16  16.430869  -6.275164   2.563113
16   6.275167 -16.430871   3.760400
16  10.431198  -8.169419  11.016261
16  11.432937  -8.086611   9.333041
16  10.535397  -9.676399   6.324044
16   6.525366  -8.386048   6.690387
16   5.596570  -9.537387   8.244707
16   6.886914  -9.530272   9.754036
11   8.010846  -4.400959   8.826179
11   7.771309 -13.680523   8.589416
