CRYSTAL
PRIMVEC
 17.029504   0.000000   0.000000
  0.000000  17.029504   0.000000
  0.000000   0.000000  20.000041
PRIMCOORD
111 1
28  17.042645  -0.124870   0.200160
28   2.851366  -0.124870   3.038416
28  17.042645  -2.963126   3.038416
28   2.851366  -2.963126   0.200160
28  17.042645  -5.801382   0.200160
28  17.042645 -11.477893   0.200160
28   2.851366 -11.477893   3.038416
28   2.851366  -5.801382   3.038416
28  17.042645  -8.639638   3.038416
28  17.042645 -14.316149   3.038416
28   2.851366 -14.316149   0.200160
28   2.851366  -8.639638   0.200160
28   5.689622  -0.124870   0.200160
28  11.366133  -0.124870   0.200160
28  11.366133  -2.963126   3.038416
28   5.689622  -2.963126   3.038416
28   8.527877  -2.963126   0.200160
28  14.204389  -2.963126   0.200160
28  14.204389  -0.124870   3.038416
28   8.527877  -0.124870   3.038416
28   5.689622  -5.801382   0.200160
28  11.366133 -11.477893   0.200160
28  14.204389 -11.477893   3.038416
28   8.527877  -5.801382   3.038416
28  11.366133  -8.639638   3.038416
28   5.689622 -14.316149   3.038416
28   8.527877 -14.316149   0.200160
28  14.204389  -8.639638   0.200160
28   5.689622 -11.477893   0.200160
28  11.366133  -5.801382   0.200160
28  14.204389  -5.801382   3.038416
28   8.527877 -11.477893   3.038416
28  11.366133 -14.316149   3.038416
28   5.689622  -8.639638   3.038416
28   8.527877  -8.639638   0.200160
28  14.204389 -14.316149   0.200160
16   2.252715  -2.364475   3.637057
16  14.803040 -14.914800   2.439775
16   0.611761 -14.914800   0.798802
16   5.090970  -2.364475   5.278031
16  14.803040  -5.202731   5.278031
16   2.252715  -0.723521   0.798802
16   5.090970  -0.723521   2.439775
16   0.611761  -5.202731   3.637057
16   2.252715  -8.040986   3.637057
16  14.803040  -9.238289   2.439775
16   0.611761  -9.238289   0.798802
16   5.090970  -8.040986   5.278031
16  14.803040 -10.879242   5.278031
16   2.252715 -12.076545   0.798802
16   5.090970 -12.076545   2.439775
16   0.611761 -10.879242   3.637057
16   7.929226  -2.364485   3.637067
16   9.126529 -14.914790   2.439765
16   9.126529  -5.202741   5.278021
16   7.929226  -0.723511   0.798812
16  10.767482  -0.723511   2.439765
16  11.964784  -5.202741   3.637067
16  11.964784 -14.914790   0.798812
16  10.767482  -2.364485   5.278021
16   2.252715 -13.717498   3.637057
16  14.803040  -3.561777   2.439775
16   0.611761  -3.561777   0.798802
16   5.090970 -13.717498   5.278031
16  14.803040 -16.555754   5.278031
16   2.252715  -6.400033   0.798802
16   5.090970  -6.400033   2.439775
16   0.611761 -16.555754   3.637057
16  13.605738  -2.364485   3.637067
16   3.450017 -14.914790   2.439765
16   3.450017  -5.202741   5.278021
16  13.605738  -0.723511   0.798812
16  16.443993  -0.723511   2.439765
16   6.288273  -5.202741   3.637067
16   6.288273 -14.914790   0.798812
16  16.443993  -2.364485   5.278021
16   7.929226  -8.040986   3.637057
16   9.126529  -9.238289   2.439775
16  11.964784  -9.238289   0.798802
16  10.767482  -8.040986   5.278031
16   9.126529 -10.879242   5.278031
16   7.929226 -12.076545   0.798802
16  10.767482 -12.076545   2.439775
16  11.964784 -10.879242   3.637057
16   7.929226 -13.717498   3.637057
16   9.126529  -3.561777   2.439775
16  11.964784  -3.561777   0.798802
16  10.767482 -13.717498   5.278031
16   9.126529 -16.555754   5.278031
16   7.929226  -6.400033   0.798802
16  10.767482  -6.400033   2.439775
16  11.964784 -16.555754   3.637057
16  13.605738  -8.040986   3.637057
16   3.450017  -9.238289   2.439775
16   6.288273  -9.238289   0.798802
16  16.443993  -8.040986   5.278031
16   3.450017 -10.879242   5.278031
16  13.605738 -12.076545   0.798802
16  16.443993 -12.076545   2.439775
16   6.288273 -10.879242   3.637057
16  13.605738 -13.717498   3.637057
16   3.450017  -3.561777   2.439775
16   6.288273  -3.561777   0.798802
16  16.443993 -13.717498   5.278031
16   3.450017 -16.555754   5.278031
16  13.605738  -6.400033   0.798802
16  16.443993  -6.400033   2.439775
16   6.288273 -16.555754   3.637057
16   7.494466 -10.283911   6.138699
11   4.510812  -4.946719   9.822145
11  13.714176  -8.069773   6.561223
